Version 4.1
SHEET 1 988 680
WIRE -336 16 -368 16
WIRE -208 16 -256 16
WIRE -112 16 -208 16
WIRE -208 112 -208 80
WIRE -208 112 -288 112
WIRE -112 112 -112 16
WIRE -32 112 -112 112
WIRE 144 112 48 112
WIRE -208 128 -208 112
WIRE 144 192 144 112
WIRE 288 192 144 192
WIRE 368 192 288 192
WIRE 480 192 448 192
WIRE 656 192 480 192
WIRE 784 192 656 192
WIRE 784 208 784 192
WIRE -208 224 -208 208
WIRE -160 224 -208 224
WIRE -208 240 -208 224
WIRE -32 256 -112 256
WIRE 144 256 144 192
WIRE 144 256 48 256
WIRE -208 336 -288 336
WIRE 784 368 784 288
WIRE -336 416 -368 416
WIRE -208 416 -208 384
WIRE -208 416 -256 416
WIRE -112 416 -112 256
WIRE -112 416 -208 416
WIRE 784 544 784 432
FLAG -160 224 0
FLAG -368 16 0
FLAG -368 416 0
FLAG 32 400 HVP
FLAG -288 112 HVP
FLAG -288 336 HVN
FLAG 288 256 0
FLAG 480 256 0
FLAG 784 544 0
FLAG 656 256 0
SYMBOL ind 64 96 R90
WINDOW 0 5 56 VBottom 2
WINDOW 3 32 56 VTop 2
SYMATTR InstName L3
SYMATTR Value 0.5µ
SYMATTR Type ind
SYMBOL ind 64 240 R90
WINDOW 0 5 56 VBottom 2
WINDOW 3 37 48 VTop 2
SYMATTR InstName L4
SYMATTR Value 0.5µ
SYMATTR Type ind
SYMBOL cap -224 16 R0
SYMATTR InstName C4
SYMATTR Value 100n
SYMBOL res -224 112 R0
SYMATTR InstName R2
SYMATTR Value 50
SYMBOL cap -192 384 R180
WINDOW 0 -24 7 Left 2
WINDOW 3 24 8 Left 2
SYMATTR InstName C5
SYMATTR Value 100n
SYMBOL res -192 336 R180
WINDOW 0 36 76 Left 2
WINDOW 3 36 40 Left 2
SYMATTR InstName R3
SYMATTR Value 50
SYMBOL ind -240 0 R90
WINDOW 0 5 56 VBottom 2
WINDOW 3 32 56 VTop 2
SYMATTR InstName L5
SYMATTR Value 5µ
SYMBOL ind -240 400 R90
WINDOW 0 5 56 VBottom 2
WINDOW 3 32 56 VTop 2
SYMATTR InstName L6
SYMATTR Value 5µ
SYMBOL current 784 288 R180
WINDOW 0 24 80 Left 2
WINDOW 3 24 0 Left 2
WINDOW 123 24 -28 Left 2
WINDOW 39 0 0 Left 0
SYMATTR InstName I1
SYMATTR Value ""
SYMATTR Value2 AC 1
SYMBOL cap 272 192 R0
SYMATTR InstName C1
SYMATTR Value 2.2nF
SYMBOL ind 464 176 R90
WINDOW 0 5 56 VBottom 2
WINDOW 3 32 56 VTop 2
SYMATTR InstName L1
SYMATTR Value 400µ
SYMBOL cap 464 192 R0
SYMATTR InstName C2
SYMATTR Value 2.2nF
SYMBOL cap 640 192 R0
SYMATTR InstName C3
SYMATTR Value {C_cm}
SYMBOL cap 768 368 R0
SYMATTR InstName C6
SYMATTR Value 1.7n
TEXT -304 472 Left 2 !.ac dec 1000 10k 10Mega
TEXT -32 40 Left 2 !k L3 L4 0.2
TEXT 0 -72 Left 2 !.step param C_cm list 1p 100n
TEXT 376 16 Left 2 ;Reference filter
TEXT 608 152 Left 2 ;the new capa
TEXT -8 184 Left 2 ;cable
TEXT -248 -32 Left 2 ;lisn
TEXT 832 240 Left 2 ;CM noise
TEXT 344 64 Left 2 !.param L_leak=5u
TEXT 840 392 Left 2 ;Transformer
RECTANGLE Normal -96 448 -432 -48 2
RECTANGLE Normal 240 352 592 48 2
