Version 4.1
SHEET 1 1880 740
WIRE 1456 0 1456 -64
WIRE 848 32 848 16
WIRE 1456 96 1456 80
WIRE 1824 96 1728 96
WIRE 848 128 848 112
WIRE 1216 128 1120 128
WIRE 0 144 -64 144
WIRE 240 144 80 144
WIRE 464 144 432 144
WIRE 544 144 528 144
WIRE 640 144 544 144
WIRE 544 160 544 144
WIRE 640 160 640 144
WIRE -64 208 -64 144
WIRE 432 256 432 224
WIRE 528 256 432 256
WIRE 544 256 544 224
WIRE 544 256 528 256
WIRE 640 288 640 240
WIRE -64 320 -64 288
WIRE 96 320 -64 320
WIRE 240 320 240 304
WIRE 240 320 96 320
WIRE 432 448 368 448
WIRE 672 448 512 448
WIRE 976 448 864 448
WIRE 1024 448 976 448
WIRE 1072 448 1024 448
WIRE 976 464 976 448
WIRE 1072 464 1072 448
WIRE 368 512 368 448
WIRE 864 560 864 528
WIRE 896 560 864 560
WIRE 976 560 976 528
WIRE 976 560 960 560
WIRE 976 592 976 560
WIRE 1072 592 1072 544
WIRE 1072 592 976 592
WIRE 368 624 368 592
WIRE 528 624 368 624
WIRE 672 624 672 608
WIRE 672 624 528 624
FLAG 96 320 0
FLAG 528 256 0
FLAG 640 288 0
FLAG -96 720 0
FLAG -96 640 VCMD
FLAG 560 -160 0
FLAG 608 -176 0
FLAG 368 304 VCMD
FLAG 528 624 0
FLAG 1024 448 0
FLAG 800 608 VCMD
FLAG 848 16 VCMD
FLAG 848 208 0
FLAG 1120 208 0
FLAG 1216 208 0
FLAG 1456 176 0
FLAG 1728 176 0
FLAG 1824 176 0
FLAG 1456 -144 0
SYMBOL ind 224 128 R0
SYMATTR InstName L1
SYMATTR Value {Np*Np*AL}
SYMATTR Type ind
SYMBOL voltage -64 192 R0
WINDOW 123 0 0 Left 0
WINDOW 39 0 0 Left 0
SYMATTR InstName V1
SYMATTR Value {VDC}
SYMBOL ind 416 128 R0
SYMATTR InstName L2
SYMATTR Value {AL}
SYMATTR Type ind
SYMBOL diode 464 160 R270
WINDOW 0 32 32 VTop 2
WINDOW 3 0 32 VBottom 2
SYMATTR InstName D1
SYMBOL cap 528 160 R0
SYMATTR InstName C1
SYMATTR Value 1µ
SYMBOL res 624 144 R0
SYMATTR InstName R1
SYMATTR Value 10
SYMBOL res 96 128 R90
WINDOW 0 0 56 VBottom 2
WINDOW 3 32 56 VTop 2
SYMATTR InstName R2
SYMATTR Value 1m
SYMBOL voltage -96 624 R0
WINDOW 123 0 0 Left 0
WINDOW 39 0 0 Left 0
SYMATTR InstName V2
SYMATTR Value PULSE(0 10 0 100n 100n {Dcy/freq} {1/freq})
SYMBOL sw 560 -144 R180
SYMATTR InstName S1
SYMBOL nmos 288 224 M0
SYMATTR InstName M1
SYMATTR Value AOD280A60
SYMBOL res 384 288 R90
WINDOW 0 0 56 VBottom 2
WINDOW 3 32 56 VTop 2
SYMATTR InstName R3
SYMATTR Value 5
SYMBOL ind 656 432 R0
SYMATTR InstName L3
SYMATTR Value {Np*Np*AL}
SYMATTR Type ind
SYMBOL voltage 368 496 R0
WINDOW 123 0 0 Left 0
WINDOW 39 0 0 Left 0
SYMATTR InstName V3
SYMATTR Value {VDC}
SYMBOL ind 848 432 R0
SYMATTR InstName L4
SYMATTR Value {AL}
SYMATTR Type ind
SYMBOL diode 896 576 R270
WINDOW 0 32 32 VTop 2
WINDOW 3 0 32 VBottom 2
SYMATTR InstName D2
SYMBOL cap 960 464 R0
SYMATTR InstName C2
SYMATTR Value 1µ
SYMBOL res 1056 448 R0
SYMATTR InstName R4
SYMATTR Value 10
SYMBOL res 528 432 R90
WINDOW 0 0 56 VBottom 2
WINDOW 3 32 56 VTop 2
SYMATTR InstName R5
SYMATTR Value 1m
SYMBOL nmos 720 528 M0
SYMATTR InstName M2
SYMATTR Value AOD280A60
SYMBOL res 816 592 R90
WINDOW 0 0 56 VBottom 2
WINDOW 3 32 56 VTop 2
SYMATTR InstName R6
SYMATTR Value 5
SYMBOL ind 832 112 R0
SYMATTR InstName L5
SYMATTR Value {Np*Np*AL}
SYMATTR Type ind
SYMBOL ind 1136 224 R180
WINDOW 0 36 80 Left 2
WINDOW 3 36 40 Left 2
SYMATTR InstName L6
SYMATTR Value {AL}
SYMATTR Type ind
SYMBOL res 1200 112 R0
SYMATTR InstName R7
SYMATTR Value 10
SYMBOL res 864 128 R180
WINDOW 0 36 76 Left 2
WINDOW 3 36 40 Left 2
SYMATTR InstName R8
SYMATTR Value 1m
SYMBOL ind 1440 80 R0
SYMATTR InstName L7
SYMATTR Value {Np*Np*AL}
SYMATTR Type ind
SYMBOL ind 1744 192 R180
WINDOW 0 36 80 Left 2
WINDOW 3 36 40 Left 2
SYMATTR InstName L8
SYMATTR Value {Np*Np*AL}
SYMATTR Type ind
SYMBOL res 1808 80 R0
SYMATTR InstName R9
SYMATTR Value 10
SYMBOL res 1472 96 R180
WINDOW 0 36 76 Left 2
WINDOW 3 36 40 Left 2
SYMATTR InstName R10
SYMATTR Value 1m
SYMBOL voltage 1456 -48 R180
WINDOW 0 24 96 Left 2
WINDOW 3 24 16 Left 2
WINDOW 123 0 0 Left 0
WINDOW 39 0 0 Left 0
SYMATTR InstName V4
SYMATTR Value SINE(0 10 {freq})
TEXT 16 -96 Left 2 !.param AL=5200n freq=132k
TEXT 8 -40 Left 2 !*.step param Np list 8 18 20 25 30
TEXT 304 -208 Left 2 !.tran 0 1m 0.952M
TEXT 296 144 Left 2 !k L1 L2 1
TEXT 0 -8 Left 2 !.model SW SW (ron = 1m roff=1meg vh = 0.5 vt =0.5)
TEXT 8 -144 Left 2 !.param VDC =360
TEXT 728 448 Left 2 !k2 L3 L4 1
TEXT 440 -40 Left 2 !.param Np = 25
TEXT 568 -104 Left 2 !.param Dcy=0.3
TEXT 616 -128 Left 2 !*.param Dcy=0.1
TEXT 904 128 Left 2 !k3 L5 L6 1
TEXT 1512 96 Left 2 !k4 L7 L8 1
