Version 4.1
SHEET 1 880 680
WIRE 96 176 -64 176
WIRE 176 176 96 176
WIRE -64 192 -64 176
WIRE 176 192 176 176
WIRE 176 192 80 192
WIRE 272 192 176 192
WIRE 272 208 272 192
WIRE 176 272 80 272
WIRE 272 272 176 272
WIRE -64 320 -64 272
WIRE 176 320 176 272
FLAG -64 320 0
FLAG 176 320 0
FLAG 96 176 Z
SYMBOL current -64 272 R180
WINDOW 0 24 80 Left 2
WINDOW 3 24 0 Left 2
WINDOW 123 24 -28 Left 2
WINDOW 39 0 0 Left 0
SYMATTR InstName I1
SYMATTR Value ""
SYMATTR Value2 AC 1
SYMBOL ind 64 176 R0
SYMATTR InstName L2
SYMATTR Value 484µ
SYMBOL res 160 176 R0
SYMATTR InstName R1
SYMATTR Value 1370Meg
SYMBOL cap 256 208 R0
SYMATTR InstName C1
SYMATTR Value 3.3p
SYMATTR SpiceLine Rser=1370
TEXT -136 344 Left 2 !.ac dec 10 0.1Meg 100Meg
