Version 4.1
SHEET 1 932 680
WIRE 16 128 -144 128
WIRE 64 128 16 128
WIRE 112 128 64 128
WIRE 176 128 112 128
WIRE 304 128 256 128
WIRE 368 128 304 128
WIRE 896 128 368 128
WIRE 16 144 16 128
WIRE 304 144 304 128
WIRE 112 160 112 128
WIRE 896 160 896 128
WIRE -144 176 -144 128
WIRE 64 224 16 224
WIRE 112 224 64 224
WIRE 304 240 304 208
WIRE 416 240 304 240
WIRE -144 320 -144 256
WIRE 64 320 64 224
WIRE 64 320 -144 320
WIRE 144 320 64 320
WIRE 304 320 144 320
WIRE 416 320 304 320
WIRE 896 320 896 240
WIRE 896 320 416 320
FLAG 144 320 0
FLAG 416 240 Vmeas1
FLAG 64 128 PS1
FLAG 368 128 EUT1
SYMBOL ind 272 112 R90
WINDOW 0 5 56 VBottom 2
WINDOW 3 32 56 VTop 2
SYMATTR InstName L1
SYMATTR Value 5µ
SYMBOL cap 288 144 R0
SYMATTR InstName C1
SYMATTR Value 0.1µ
SYMBOL cap 96 160 R0
SYMATTR InstName C2
SYMATTR Value 1µ
SYMBOL res 288 224 R0
SYMATTR InstName R1
SYMATTR Value 1k
SYMBOL res 400 224 R0
SYMATTR InstName R2
SYMATTR Value 50
SYMBOL res 0 128 R0
SYMATTR InstName R3
SYMATTR Value 1Meg
SYMBOL res -160 160 R0
SYMATTR InstName R4
SYMATTR Value {Rps}
SYMBOL current 896 240 R180
WINDOW 0 24 80 Left 2
WINDOW 3 24 0 Left 2
WINDOW 123 24 -28 Left 2
WINDOW 39 0 0 Left 0
SYMATTR InstName I1
SYMATTR Value ""
SYMATTR Value2 AC 1
TEXT -160 648 Left 2 !.ac dec 1000 1K 1G
TEXT -160 0 Left 2 !.step param Rps list 1 50 1k
