Version 4.1
SHEET 1 880 680
WIRE 64 128 16 128
WIRE 112 128 64 128
WIRE 176 128 112 128
WIRE 304 128 256 128
WIRE 368 128 304 128
WIRE 656 128 368 128
WIRE 16 144 16 128
WIRE 304 144 304 128
WIRE 112 160 112 128
WIRE 656 160 656 128
WIRE 656 192 656 160
WIRE 64 224 16 224
WIRE 112 224 64 224
WIRE 304 240 304 208
WIRE 416 240 304 240
WIRE 64 320 64 224
WIRE 144 320 64 320
WIRE 304 320 144 320
WIRE 416 320 304 320
WIRE 656 320 656 240
WIRE 656 320 416 320
WIRE 0 432 -128 432
WIRE 48 432 0 432
WIRE 96 432 48 432
WIRE 160 432 96 432
WIRE 288 432 240 432
WIRE 352 432 288 432
WIRE 0 448 0 432
WIRE 288 448 288 432
WIRE -128 464 -128 432
WIRE 96 464 96 432
WIRE 48 528 0 528
WIRE 96 528 48 528
WIRE 288 544 288 512
WIRE 400 544 288 544
WIRE -128 624 -128 544
WIRE 48 624 48 528
WIRE 48 624 -128 624
WIRE 128 624 48 624
WIRE 288 624 128 624
WIRE 400 624 288 624
FLAG 144 320 0
FLAG 416 240 Vmeas1
FLAG 64 128 PS1
FLAG 368 128 EUT1
FLAG 128 624 0
FLAG 400 544 Vmeas2
FLAG 48 432 PS2
FLAG 352 432 EUT2
SYMBOL ind 272 112 R90
WINDOW 0 5 56 VBottom 2
WINDOW 3 32 56 VTop 2
SYMATTR InstName L1
SYMATTR Value 5µ
SYMBOL cap 288 144 R0
SYMATTR InstName C1
SYMATTR Value 0.1µ
SYMBOL cap 96 160 R0
SYMATTR InstName C2
SYMATTR Value 1µ
SYMBOL res 288 224 R0
SYMATTR InstName R1
SYMATTR Value 1k
SYMBOL res 400 224 R0
SYMATTR InstName R2
SYMATTR Value 50
SYMBOL res 0 128 R0
SYMATTR InstName R3
SYMATTR Value 1Meg
SYMBOL voltage 656 144 R0
WINDOW 123 24 124 Left 2
WINDOW 39 0 0 Left 0
SYMATTR InstName V1
SYMATTR Value ""
SYMATTR Value2 AC 1
SYMBOL ind 256 416 R90
WINDOW 0 5 56 VBottom 2
WINDOW 3 32 56 VTop 2
SYMATTR InstName L2
SYMATTR Value 5µ
SYMBOL cap 272 448 R0
SYMATTR InstName C3
SYMATTR Value 0.1µ
SYMBOL cap 80 464 R0
SYMATTR InstName C4
SYMATTR Value 1µ
SYMBOL res 272 528 R0
SYMATTR InstName R4
SYMATTR Value 1k
SYMBOL res 384 528 R0
SYMATTR InstName R5
SYMATTR Value 50
SYMBOL res -16 432 R0
SYMATTR InstName R6
SYMATTR Value 1Meg
SYMBOL voltage -128 448 R0
WINDOW 123 24 124 Left 2
WINDOW 39 0 0 Left 0
SYMATTR InstName V2
SYMATTR Value ""
SYMATTR Value2 AC 1
TEXT -160 648 Left 2 !.ac dec 1000 1K 1G
