Version 4.1
SHEET 1 880 680
WIRE 192 32 64 32
WIRE 64 80 64 32
WIRE 192 80 192 32
WIRE 336 80 192 80
WIRE 192 112 192 80
WIRE 192 224 192 176
WIRE 64 256 64 160
FLAG 64 256 0
FLAG 192 304 0
FLAG 336 80 Vf
SYMBOL diode 176 112 R0
SYMATTR InstName D1
SYMATTR Value 1N4148
SYMBOL current 64 160 R180
WINDOW 0 24 80 Left 2
WINDOW 3 24 0 Left 2
WINDOW 123 0 0 Left 0
WINDOW 39 0 0 Left 0
SYMATTR InstName I1
SYMATTR Value 500”
SYMBOL bv 192 208 R0
SYMATTR InstName B_noise
SYMATTR Value V=white(1e6*time)*1m
TEXT 120 -64 Left 2 !.tran 10m
TEXT -40 -24 Left 2 !*.temp 0 20 100
TEXT -32 8 Left 2 !.step temp 0 100 20
