Version 4.1
SHEET 1 880 680
WIRE -272 -64 -448 -64
WIRE 144 -64 -272 -64
WIRE 368 -64 144 -64
WIRE 144 -32 144 -64
WIRE 368 0 368 -64
WIRE -448 32 -448 -64
WIRE -272 32 -272 -64
WIRE 96 48 48 48
WIRE 48 80 48 48
WIRE 144 80 144 64
WIRE 144 80 48 80
WIRE 368 80 144 80
WIRE 144 176 144 80
WIRE 336 176 144 176
WIRE -32 256 -64 256
WIRE 96 256 48 256
WIRE 336 272 224 272
WIRE -448 336 -448 112
WIRE -272 336 -272 96
WIRE -272 336 -448 336
WIRE -160 336 -160 320
WIRE -160 336 -272 336
WIRE 144 336 144 272
WIRE 144 336 -160 336
WIRE 224 336 224 272
WIRE 224 336 144 336
SYMBOL nmos 96 -32 R0
WINDOW 0 56 32 Invisible 2
SYMATTR InstName M1
SYMATTR Value IPW60R037P7
SYMBOL nmos 96 176 R0
WINDOW 0 56 32 Invisible 2
SYMATTR InstName M2
SYMATTR Value IPW60R037P7
SYMBOL res 64 240 R90
WINDOW 0 0 56 VBottom 2
WINDOW 3 32 56 Invisible 2
SYMATTR InstName R_gate
SYMBOL ind 352 -16 R0
WINDOW 0 36 40 Invisible 2
WINDOW 40 44 46 Left 2
WINDOW 3 46 14 Left 2
SYMATTR InstName L1
SYMATTR SpiceLine2 Big Inductance
SYMATTR Value 360”F
SYMATTR SpiceLine Rser=1m
SYMBOL cap -288 32 R0
WINDOW 0 24 8 Invisible 2
SYMATTR InstName C1
SYMATTR Value 4”F
SYMBOL voltage -448 16 R0
SYMATTR InstName V_DC_Bus
SYMATTR Value 400V
TEXT -248 264 Left 2 ;DC-DC driver +\nMUC STM32
TEXT 208 136 Left 2 ;Id meas TCP202
TEXT 344 208 Left 2 ;Vds Isulation\nprob
RECTANGLE Normal -256 224 -64 320 2
RECTANGLE Normal 496 288 336 160 2
CIRCLE Normal 96 160 192 112 2
