Version 4.1
SHEET 1 880 680
WIRE 144 -64 16 -64
WIRE 240 -64 144 -64
WIRE 144 -32 144 -64
WIRE 240 0 240 -64
WIRE 96 48 48 48
WIRE 48 80 48 48
WIRE 144 80 144 64
WIRE 144 80 48 80
WIRE 240 80 144 80
WIRE 144 96 144 80
WIRE 240 112 240 80
WIRE 16 176 0 176
WIRE 144 224 144 192
WIRE 144 224 16 224
WIRE 240 224 240 208
WIRE 240 224 144 224
SYMBOL nmos 96 -32 R0
WINDOW 0 56 32 Invisible 2
WINDOW 3 56 72 Invisible 2
SYMATTR InstName M1
SYMATTR Value IPW60R037P7
SYMBOL nmos 96 96 R0
WINDOW 0 56 32 Invisible 2
WINDOW 3 56 72 Invisible 2
SYMATTR InstName M2
SYMATTR Value IPW60R037P7
SYMBOL res 112 160 R90
WINDOW 0 0 56 Invisible 2
WINDOW 3 32 56 Invisible 2
SYMATTR InstName R_gate
SYMBOL ind 224 -16 R0
WINDOW 0 36 40 Invisible 2
WINDOW 3 46 14 Invisible 2
SYMATTR InstName L1
SYMATTR Value 360”F
SYMATTR SpiceLine2 Big Inductance
SYMATTR SpiceLine Rser=1m
TEXT 224 128 Left 2 ;+
TEXT 232 200 Left 2 ;-
TEXT 208 160 Left 2 ;vol
RECTANGLE Normal 272 208 208 112 2
