Version 4.1
SHEET 1 880 680
WIRE -64 32 -320 32
WIRE 336 32 -64 32
WIRE 336 48 336 32
WIRE 192 96 96 96
WIRE -320 112 -320 32
WIRE 96 112 96 96
WIRE -64 192 -64 32
WIRE 336 192 336 144
WIRE 336 192 96 192
WIRE 336 304 336 192
WIRE 368 304 336 304
WIRE 480 304 448 304
WIRE 592 304 480 304
WIRE 336 320 336 304
WIRE -320 400 -320 192
WIRE -64 400 -64 256
WIRE -64 400 -320 400
WIRE 128 400 -64 400
WIRE 336 400 336 384
WIRE 336 400 128 400
WIRE 480 400 480 368
WIRE 480 400 336 400
WIRE 592 400 592 384
WIRE 592 400 480 400
FLAG 128 400 0
SYMBOL voltage 96 96 R0
WINDOW 3 -69 -106 Left 2
WINDOW 123 0 0 Left 0
WINDOW 39 0 0 Left 0
SYMATTR InstName V1
SYMATTR Value PULSE(0 5 0 100n 100n {dc/freq} {1/freq})
SYMBOL npn 272 48 R0
SYMATTR InstName Q1
SYMATTR Value 2SCR583D3
SYMBOL res 288 80 R90
WINDOW 0 0 56 VBottom 2
WINDOW 3 32 56 VTop 2
SYMATTR InstName R1
SYMATTR Value 200
SYMBOL voltage -320 96 R0
WINDOW 123 0 0 Left 0
WINDOW 39 24 124 Left 2
SYMATTR InstName V2
SYMATTR Value 12
SYMATTR SpiceLine Rser=200m
SYMBOL diode 352 384 R180
WINDOW 0 24 64 Left 2
WINDOW 3 24 0 Left 2
SYMATTR InstName D1
SYMATTR Value 1N5819
SYMBOL ind 464 288 R90
WINDOW 0 5 56 VBottom 2
WINDOW 3 32 56 VTop 2
SYMATTR InstName L1
SYMATTR Value 330µ
SYMBOL cap 464 304 R0
SYMATTR InstName C1
SYMATTR Value 220µ
SYMBOL res 576 288 R0
SYMATTR InstName R2
SYMATTR Value 5
SYMBOL cap -80 192 R0
SYMATTR InstName C2
SYMATTR Value 100µ
TEXT 24 -48 Left 2 !.param freq=52k dc=0.4
TEXT -88 440 Left 2 !.tran 0 10m 8m
TEXT 24 -104 Left 2 ;LM2575
RECTANGLE Normal 576 240 16 -80 2
