Version 4.1
SHEET 1 880 720
WIRE -160 0 -432 0
WIRE -48 0 -160 0
WIRE 96 0 -48 0
WIRE 288 32 208 32
WIRE 368 32 352 32
WIRE 576 32 368 32
WIRE -432 48 -432 0
WIRE 96 48 96 0
WIRE 208 48 208 32
WIRE -160 64 -160 0
WIRE 368 112 368 96
WIRE -48 160 -48 144
WIRE -160 192 -160 128
WIRE -160 288 -160 272
WIRE -48 288 -48 224
WIRE -48 288 -160 288
WIRE 96 288 96 128
WIRE 96 288 -48 288
WIRE 96 384 96 288
WIRE -80 464 -192 464
WIRE 48 464 0 464
WIRE -432 544 -432 128
WIRE -416 544 -432 544
WIRE -192 544 -416 544
WIRE 96 544 96 480
WIRE 96 544 -192 544
FLAG -416 544 0
FLAG 208 128 0
FLAG 368 112 0
FLAG 576 32 Vout
FLAG 576 112 0
SYMBOL ind 80 32 R0
SYMATTR InstName L1
SYMATTR Value {Lp}
SYMATTR Type ind
SYMBOL ind 192 32 R0
SYMATTR InstName L2
SYMATTR Value {Ls}
SYMATTR Type ind
SYMBOL nmos 48 384 R0
SYMATTR InstName M1
SYMATTR Value R6020PNJ
SYMBOL voltage -192 448 R0
WINDOW 3 -18 141 Left 2
WINDOW 123 0 0 Left 0
WINDOW 39 0 0 Left 0
SYMATTR InstName V1
SYMATTR Value PULSE(0 10 0 80n 80n {DutyCycle/Freq} {1/Freq})
SYMBOL res 16 448 R90
WINDOW 0 0 56 VBottom 2
WINDOW 3 32 56 VTop 2
SYMATTR InstName R1
SYMATTR Value 3
SYMBOL voltage -432 32 R0
WINDOW 123 0 0 Left 0
WINDOW 39 24 124 Left 2
SYMATTR InstName V2
SYMATTR Value 400v
SYMATTR SpiceLine Rser=100m
SYMBOL diode 288 48 R270
WINDOW 0 32 32 VTop 2
WINDOW 3 0 32 VBottom 2
SYMATTR InstName D1
SYMBOL cap 352 32 R0
SYMATTR InstName C1
SYMATTR Value 10µ
SYMBOL res 560 16 R0
SYMATTR InstName R2
SYMATTR Value 12
SYMBOL res -64 -16 R0
SYMATTR InstName R3
SYMATTR Value 100
SYMBOL cap -64 80 R0
SYMATTR InstName C2
SYMATTR Value 10n
SYMBOL diode -32 224 R180
WINDOW 0 24 64 Left 2
WINDOW 3 24 0 Left 2
SYMATTR InstName D2
SYMBOL res -176 176 R0
SYMATTR InstName R4
SYMATTR Value 1k
SYMBOL diode -176 64 R0
SYMATTR InstName D3
SYMATTR Value KDZLV150
TEXT 112 -32 Left 2 !K L1 L2 0.96
TEXT 432 224 Left 2 !.param Lp=500u Freq=132k n=32
TEXT 432 264 Left 2 !.params Ls={Lp/(n*n)}
TEXT -464 616 Left 2 !.tran 1m
TEXT 384 -48 Left 2 !.ic v(Vout)= 0
TEXT -24 656 Left 2 !.param DutyCycle=0.2
TEXT -40 704 Left 2 !*.step param DutyCycle list 0.2 0.5
