Version 4.1
SHEET 1 1404 680
WIRE 416 -736 176 -736
WIRE -240 -720 -288 -720
WIRE 0 -720 -160 -720
WIRE 176 -672 176 -736
WIRE 176 -656 176 -672
WIRE -384 -592 -512 -592
WIRE -288 -592 -288 -720
WIRE -288 -592 -304 -592
WIRE -176 -592 -288 -592
WIRE 64 -592 64 -720
WIRE 64 -592 -96 -592
WIRE 128 -592 64 -592
WIRE 176 -576 176 -592
WIRE -512 -496 -512 -512
WIRE 176 -496 176 -576
WIRE 176 -496 -512 -496
WIRE 416 -496 176 -496
WIRE 416 -480 416 -496
WIRE -272 -336 -352 -336
WIRE -224 -336 -272 -336
WIRE 16 -336 -144 -336
WIRE 416 -336 416 -400
WIRE 176 -320 176 -496
WIRE -400 -240 -512 -240
WIRE -272 -240 -272 -336
WIRE -272 -240 -320 -240
WIRE -128 -240 -272 -240
WIRE 48 -240 -48 -240
WIRE 80 -240 80 -336
WIRE 80 -240 48 -240
WIRE 128 -240 80 -240
WIRE 416 -208 416 -272
FLAG -512 -160 0
FLAG 416 -656 0
FLAG 48 -240 vgs
FLAG 416 -496 PHASE
FLAG 176 -224 0
FLAG -352 -336 vdrv_L
FLAG 416 -208 0
SYMBOL voltage -512 -256 R0
WINDOW 3 -12 166 Left 2
WINDOW 123 0 0 Left 0
WINDOW 39 0 0 Left 0
SYMATTR InstName V1
SYMATTR Value PULSE(0 12 0 10n 10n 4.8u 10u)
SYMBOL res -144 -224 R270
WINDOW 0 32 56 VTop 2
WINDOW 3 0 56 VBottom 2
SYMATTR InstName R_gExt
SYMATTR Value 10
SYMBOL ind2 400 -496 R0
SYMATTR InstName L1
SYMATTR Value 20µ
SYMATTR Type ind
SYMATTR SpiceLine Rser=1m
SYMBOL voltage 416 -752 R0
WINDOW 0 40 51 Left 2
SYMATTR InstName V2
SYMATTR Value 200
SYMBOL nmos 128 -320 R0
SYMATTR InstName M1
SYMATTR Value R6020PNJ
SYMBOL nmos 128 -672 R0
SYMATTR InstName M2
SYMATTR Value R6020PNJ
SYMBOL voltage -512 -608 R0
WINDOW 3 -1 153 Left 2
WINDOW 123 0 0 Left 0
WINDOW 39 0 0 Left 0
SYMATTR InstName V3
SYMATTR Value PULSE(0 12 5u 10n 10n 4.8u 10u)
SYMBOL res -192 -576 R270
WINDOW 0 32 56 VTop 2
WINDOW 3 0 56 VBottom 2
SYMATTR InstName R_gExt1
SYMATTR Value 10
SYMBOL res -288 -608 R90
WINDOW 0 0 56 VBottom 2
WINDOW 3 32 56 VTop 2
SYMATTR InstName R_drv
SYMATTR Value 3
SYMBOL res -304 -256 R90
WINDOW 0 0 56 VBottom 2
WINDOW 3 32 56 VTop 2
SYMATTR InstName R_drv1
SYMATTR Value 3
SYMBOL cap 400 -336 R0
SYMATTR InstName C1
SYMATTR Value 120µ
SYMBOL res -144 -736 R90
WINDOW 0 0 56 VBottom 2
WINDOW 3 32 56 VTop 2
SYMATTR InstName R_off
SYMATTR Value {Roff}
SYMBOL schottky 64 -736 R90
WINDOW 0 -15 30 Invisible 2
WINDOW 3 -40 53 VTop 2
SYMATTR InstName D1
SYMATTR Value RB160MM-90
SYMATTR Description Diode
SYMATTR Type diode
SYMBOL res -128 -352 R90
WINDOW 0 0 56 VBottom 2
WINDOW 3 32 56 VTop 2
SYMATTR InstName R_off1
SYMATTR Value {Roff}
SYMBOL schottky 80 -352 R90
WINDOW 0 -15 30 Invisible 2
WINDOW 3 -40 53 VTop 2
SYMATTR InstName D2
SYMATTR Value RB160MM-90
SYMATTR Description Diode
SYMATTR Type diode
TEXT 256 -136 Left 2 !.tran 0 1m 0.98m
TEXT -520 -48 Left 2 !;.step param Roff list 2 50
TEXT -264 -840 Left 2 !.param Roff=1
