Version 4.1
SHEET 1 1404 680
WIRE -624 -752 -704 -752
WIRE -592 -752 -624 -752
WIRE 176 -736 -144 -736
WIRE 336 -736 176 -736
WIRE -704 -720 -704 -752
WIRE -592 -720 -592 -752
WIRE 336 -672 336 -736
WIRE 176 -656 176 -736
WIRE -640 -640 -704 -640
WIRE -592 -640 -592 -656
WIRE -592 -640 -640 -640
WIRE 336 -496 336 -592
WIRE 416 -496 336 -496
WIRE 176 -480 176 -592
WIRE 336 -480 336 -496
WIRE 336 -480 176 -480
WIRE 176 -320 176 -480
WIRE 176 -320 16 -320
WIRE 288 -320 176 -320
WIRE 176 -224 176 -320
WIRE 288 -224 288 -320
WIRE -688 -208 -848 -208
WIRE -464 -208 -608 -208
WIRE -288 -208 -384 -208
WIRE -144 -208 -288 -208
WIRE 16 -208 16 -256
WIRE 16 -208 -64 -208
WIRE 128 -208 16 -208
WIRE 16 -112 16 -144
WIRE 128 -112 128 -160
WIRE 128 -112 16 -112
WIRE 176 -112 176 -144
WIRE 176 -112 128 -112
WIRE 288 -112 288 -160
WIRE 288 -112 176 -112
WIRE 176 -32 176 -112
FLAG 176 -32 0
FLAG -848 -128 0
FLAG -144 -656 0
FLAG -288 -208 vgs
FLAG -640 -640 0
FLAG -624 -752 G_gate
FLAG 416 -496 PHASE
SYMBOL sw 176 -128 M180
SYMATTR InstName S1
SYMBOL cap 0 -208 R0
WINDOW 0 44 59 Left 2
WINDOW 3 -47 120 Left 2
SYMATTR InstName C1
SYMATTR Value {cgs}
SYMBOL cap 0 -320 R0
WINDOW 0 43 47 Left 2
WINDOW 3 -23 -26 Left 2
SYMATTR InstName C2
SYMATTR Value {cdg}
SYMBOL cap 272 -224 R0
SYMATTR InstName C3
SYMATTR Value {cds}
SYMBOL voltage -848 -224 R0
WINDOW 123 0 0 Left 0
WINDOW 39 0 0 Left 0
SYMATTR InstName V1
SYMATTR Value PULSE(0 12 1u 10n 10n 5u 10u)
SYMBOL res -480 -192 R270
WINDOW 0 32 56 VTop 2
WINDOW 3 0 56 VBottom 2
SYMATTR InstName R_gExt
SYMATTR Value 5
SYMBOL res -48 -224 R90
WINDOW 0 0 56 VBottom 2
WINDOW 3 32 56 VTop 2
SYMATTR InstName R2
SYMATTR Value 0.8
SYMBOL ind2 320 -688 R0
SYMATTR InstName L1
SYMATTR Value 100µ
SYMATTR Type ind
SYMATTR SpiceLine Rser=1m
SYMBOL voltage -144 -752 R0
WINDOW 0 40 51 Left 2
SYMATTR InstName V2
SYMATTR Value {VDD}
SYMBOL res -592 -224 R90
WINDOW 0 0 56 VBottom 2
WINDOW 3 32 56 VTop 2
SYMATTR InstName R1
SYMATTR Value 5
SYMBOL bi -704 -640 R180
WINDOW 0 24 80 Left 2
WINDOW 3 24 0 Left 2
SYMATTR InstName B1
SYMATTR Value I=i(R_gExt)
SYMBOL cap -608 -720 R0
SYMATTR InstName C4
SYMATTR Value 1
SYMBOL diode 192 -592 R180
WINDOW 0 24 64 Left 2
WINDOW 3 24 0 Left 2
SYMATTR InstName D1
TEXT -448 -952 Left 2 !.model SW SW(Ron = 37m Roff = 1Meg Vt= 5.2 Vh = 0.5)
TEXT 280 -456 Left 2 !.ic i(L1)=29.5
TEXT -608 -48 Left 2 !.tran 2u
TEXT -104 8 Left 2 !.param cdg=95p cds=1599p cgs=8n
TEXT -944 -840 Left 2 ;Integral of the gate current
TEXT -808 -600 Left 2 !.ic v(G_gate)=0
TEXT -216 -424 Left 2 ;MOSFET model
TEXT -160 -784 Left 2 !;.step param VDD list 120 400
TEXT -160 -832 Left 2 !.param VDD  400
RECTANGLE Normal -208 -400 416 -64 2
