Version 4.1
SHEET 1 880 680
WIRE 16 -48 -112 -48
WIRE 128 -48 16 -48
WIRE 336 -48 128 -48
WIRE 80 64 80 32
WIRE 128 64 128 48
WIRE 128 64 80 64
WIRE 288 64 128 64
WIRE 336 64 336 32
WIRE 336 64 288 64
WIRE 128 80 128 64
WIRE -112 96 -112 -48
WIRE -48 160 -112 160
WIRE 64 160 32 160
WIRE 80 160 64 160
WIRE -112 240 -112 160
WIRE 96 240 -112 240
WIRE 128 240 128 176
WIRE 128 240 96 240
FLAG 64 160 G
FLAG 16 -48 bus
FLAG 96 240 0
FLAG 288 64 m
SYMBOL nmos 80 80 R0
SYMATTR InstName M1
SYMATTR Value SPA11N60C3
SYMBOL res 48 144 R90
WINDOW 0 0 56 VBottom 2
WINDOW 3 32 56 VTop 2
SYMATTR InstName R1
SYMATTR Value 5
SYMBOL nmos 80 -48 R0
SYMATTR InstName M2
SYMATTR Value SPA11N60C3
SYMBOL cap -128 96 R0
SYMATTR InstName C1
SYMATTR Value 4”
SYMBOL ind 320 -64 R0
SYMATTR InstName L1
SYMATTR Value 100”
SYMATTR SpiceLine Rser=1m
TEXT -96 -160 Left 2 !.ic v(G)=12 v(bus)=300 i(L1)={Id} V(m)=0
TEXT -128 248 Left 2 !.tran 70N
TEXT -80 -104 Left 2 !.step param Id list 2 4 5 8 10 15 20
