Version 4.1
SHEET 1 880 680
WIRE 80 48 -80 48
WIRE 304 48 80 48
WIRE 80 64 80 48
WIRE -80 128 -80 96
WIRE 80 160 80 128
WIRE 80 176 80 160
WIRE 176 176 80 176
WIRE 192 176 176 176
WIRE 304 176 304 48
WIRE 304 176 272 176
WIRE -80 272 -80 128
WIRE 32 272 -80 272
WIRE 80 272 80 240
WIRE 80 272 32 272
WIRE 176 272 176 240
WIRE 176 272 80 272
FLAG 32 272 0
FLAG 80 160 M
SYMBOL cap 64 64 R0
SYMATTR InstName C1
SYMATTR Value 1.5n
SYMBOL cap 64 176 R0
SYMATTR InstName C2
SYMATTR Value 1.5n
SYMBOL diode 192 240 R180
WINDOW 0 24 64 Left 2
WINDOW 3 24 0 Left 2
SYMATTR InstName D1
SYMBOL voltage -80 32 R0
WINDOW 123 0 0 Left 0
WINDOW 39 24 124 Left 2
SYMATTR InstName V1
SYMATTR Value 400
SYMATTR SpiceLine Rser=1m
SYMBOL current 192 176 R270
WINDOW 0 32 40 VTop 2
WINDOW 3 -32 40 VBottom 2
SYMATTR InstName I1
SYMATTR Value 10
TEXT -16 -24 Left 2 !.ic v(M) = 400
TEXT -112 296 Left 2 !.tran 300n
