Version 4.1
SHEET 1 1136 680
WIRE 112 80 32 80
WIRE 224 80 112 80
WIRE 336 80 304 80
WIRE 416 80 336 80
WIRE 592 80 416 80
WIRE 704 80 672 80
WIRE 768 80 704 80
WIRE 784 80 768 80
WIRE -352 96 -528 96
WIRE 32 96 32 80
WIRE 32 96 -272 96
WIRE 112 96 112 80
WIRE 336 96 336 80
WIRE 416 96 416 80
WIRE 32 192 32 160
WIRE 112 192 112 160
WIRE 112 192 32 192
WIRE 336 192 336 160
WIRE 336 192 112 192
WIRE 352 192 336 192
WIRE 416 192 416 160
WIRE 416 192 352 192
WIRE 704 192 704 160
WIRE 704 192 416 192
WIRE 784 192 784 160
WIRE 784 192 704 192
WIRE -528 208 -528 176
WIRE -528 304 -528 272
WIRE 240 304 160 304
WIRE 352 304 320 304
WIRE 464 304 352 304
WIRE 512 304 464 304
WIRE 624 304 592 304
WIRE -304 320 -512 320
WIRE 160 320 160 304
WIRE 160 320 -224 320
WIRE 352 320 352 304
WIRE 160 512 160 384
WIRE 352 512 352 384
WIRE 352 512 160 512
WIRE 368 512 352 512
WIRE 464 512 464 448
WIRE 464 512 368 512
WIRE 624 512 624 464
WIRE 624 512 464 512
FLAG 352 192 0
FLAG -528 304 0
FLAG 368 512 0
FLAG -512 400 0
FLAG 624 304 V_diff
FLAG 768 80 V_cm
SYMBOL cap 16 96 R0
SYMATTR InstName C1
SYMATTR Value 2.2n
SYMBOL ind 320 64 R90
WINDOW 0 5 56 VBottom 2
WINDOW 3 32 56 VTop 2
SYMATTR InstName L1
SYMATTR Value 400µ
SYMBOL cap 320 96 R0
SYMATTR InstName C2
SYMATTR Value 2.2n
SYMBOL ind 688 64 R90
WINDOW 0 5 56 VBottom 2
WINDOW 3 32 56 VTop 2
SYMATTR InstName L2
SYMATTR Value 848n
SYMBOL res 688 64 R0
SYMATTR InstName R1
SYMATTR Value 50
SYMBOL voltage -528 80 R0
WINDOW 123 24 124 Left 2
WINDOW 39 0 0 Left 0
SYMATTR Value2 AC 1
SYMATTR InstName V1
SYMATTR Value ""
SYMBOL cap 144 320 R0
SYMATTR InstName C3
SYMATTR Value 100n
SYMATTR SpiceLine Rser=10m Lser=10p
SYMBOL ind 336 288 R90
WINDOW 0 5 56 VBottom 2
WINDOW 3 32 56 VTop 2
SYMATTR InstName L3
SYMATTR Value 1.4µ
SYMBOL cap 336 320 R0
SYMATTR InstName C4
SYMATTR Value 100n
SYMBOL ind 608 288 R90
WINDOW 0 5 56 VBottom 2
WINDOW 3 32 56 VTop 2
SYMATTR InstName L4
SYMATTR Value 827n
SYMBOL voltage -512 304 R0
WINDOW 123 24 124 Left 2
WINDOW 39 0 0 Left 0
SYMATTR Value2 AC 1
SYMATTR InstName V2
SYMATTR Value ""
SYMBOL cap 448 304 R0
SYMATTR InstName C5
SYMATTR Value 2.2n
SYMBOL res 448 352 R0
SYMATTR InstName R3
SYMATTR Value 27
SYMBOL res 768 64 R0
SYMATTR InstName R4
SYMATTR Value 50
SYMBOL cap 400 96 R0
SYMATTR InstName C6
SYMATTR Value 2.2n
SYMBOL cap 96 96 R0
SYMATTR InstName C7
SYMATTR Value 2.2n
SYMBOL res 608 288 R0
SYMATTR InstName R5
SYMATTR Value 50
SYMBOL res 608 368 R0
SYMATTR InstName R6
SYMATTR Value 50
SYMBOL ind -256 80 R90
WINDOW 0 5 56 VBottom 2
WINDOW 3 32 56 VTop 2
SYMATTR InstName L5
SYMATTR Value 50n
SYMBOL ind -208 304 R90
WINDOW 0 5 56 VBottom 2
WINDOW 3 32 56 VTop 2
SYMATTR InstName L6
SYMATTR Value 100n
SYMBOL cap -544 208 R0
SYMATTR InstName C8
SYMATTR Value 100p
TEXT -152 560 Left 2 !.ac dec 100 100 100Meg
TEXT 192 -88 Left 2 ;https://www.allaboutcircuits.com/tools/parallel-wire-inductance-calculator/\ndm ==> d=1.5mm dist 10mm L=800mm perm=1 ==> 8.27e-7H\nhttps://www.allaboutcircuits.com/tools/wire-over-plane-inductance-calculator/\ndm ==> d=2mm dist 100mm L=800mm perm=1 ==> 8.48e-7H\nhttps://www.allaboutcircuits.com/tools/
TEXT 384 560 Left 2 ;tools \nhttps://technick.net/tools/impedance-calculator/\nhttps://technick.net/tools/impedance-calculator/microstrip/
