Version 4.1
SHEET 1 1236 680
WIRE 192 96 112 96
WIRE 256 96 192 96
WIRE 368 96 336 96
WIRE 528 96 368 96
WIRE 608 96 528 96
WIRE 896 96 800 96
WIRE 528 112 528 96
WIRE 608 112 608 96
WIRE 800 128 800 96
WIRE 896 128 896 96
WIRE 896 144 896 128
WIRE 112 176 112 160
WIRE 112 176 -160 176
WIRE 368 192 368 96
WIRE 528 208 528 176
WIRE 560 208 528 208
WIRE 608 208 608 192
WIRE 608 208 560 208
WIRE 192 224 192 160
WIRE 192 224 0 224
WIRE 112 240 112 176
WIRE 192 240 192 224
WIRE 560 240 560 208
WIRE 800 240 800 208
WIRE 848 240 800 240
WIRE 896 240 896 208
WIRE 896 240 848 240
WIRE 512 256 496 256
WIRE -160 288 -160 256
WIRE 0 288 0 224
WIRE 0 288 -160 288
WIRE 112 336 112 304
WIRE 112 336 96 336
WIRE 192 336 192 304
WIRE 192 336 112 336
WIRE 368 336 368 256
WIRE 368 336 192 336
FLAG 192 336 0
FLAG 560 208 v1
FLAG 848 240 0
FLAG 560 320 0
FLAG 496 256 0
FLAG 448 464 0
FLAG 448 384 c2
FLAG 512 304 c2
SYMBOL diode 128 160 R180
WINDOW 0 24 64 Left 2
WINDOW 3 24 0 Left 2
SYMATTR InstName D1
SYMBOL diode 128 304 R180
WINDOW 0 24 64 Left 2
WINDOW 3 24 0 Left 2
SYMATTR InstName D2
SYMBOL diode 208 160 R180
WINDOW 0 24 64 Left 2
WINDOW 3 24 0 Left 2
SYMATTR InstName D3
SYMBOL diode 208 304 R180
WINDOW 0 24 64 Left 2
WINDOW 3 24 0 Left 2
SYMATTR InstName D4
SYMBOL ind 352 80 R90
WINDOW 0 5 56 VBottom 2
WINDOW 3 32 56 VTop 2
SYMATTR InstName L1
SYMATTR Value 70µ
SYMATTR SpiceLine Rser=1m
SYMBOL cap 352 192 R0
SYMATTR InstName C1
SYMATTR Value 5µ
SYMBOL cap 512 112 R0
SYMATTR InstName C2
SYMATTR Value 270n
SYMBOL ind 592 96 R0
SYMATTR InstName L2
SYMATTR Value {Lval}
SYMATTR Type ind
SYMATTR SpiceLine Rser=1m
SYMBOL res 880 112 R0
SYMATTR InstName R1
SYMATTR Value 50
SYMBOL ind 784 112 R0
SYMATTR InstName L3
SYMATTR Value {Lval}
SYMATTR Type ind
SYMATTR SpiceLine Rser=1m
SYMBOL voltage -160 160 R0
WINDOW 123 0 0 Left 0
WINDOW 39 0 0 Left 0
SYMATTR InstName V1
SYMATTR Value SINE(0 310 50)
SYMBOL sw 560 224 R0
SYMATTR InstName S1
SYMBOL voltage 448 368 R0
WINDOW 123 0 0 Left 0
WINDOW 39 0 0 Left 0
SYMATTR InstName V2
SYMATTR Value PULSE(0 5 0 10n 10n 5u 10u)
TEXT 520 -16 Left 2 !*.ic v(v1)=600
TEXT -192 360 Left 2 !.tran 30m
TEXT -152 -8 Left 2 !.param Lval = 1/(4*pi*pi * 100000*100000 * 270e-9)
TEXT 576 392 Left 2 !.model SW SW(Ron = 10m Roff = 1Meg vt=0.5 vh = 0.1)
TEXT 680 56 Left 2 !k L2 L3 1
