Version 4.1
SHEET 1 880 680
WIRE 384 -112 208 -112
WIRE 528 -112 384 -112
WIRE 160 -32 160 -48
WIRE 160 16 160 -32
WIRE 208 16 208 -16
WIRE 208 16 160 16
WIRE 304 16 208 16
WIRE 384 16 384 -32
WIRE 384 16 304 16
WIRE 208 48 208 16
WIRE 528 80 528 -112
WIRE 32 128 -48 128
WIRE 144 128 112 128
WIRE 160 128 144 128
WIRE -48 240 -48 128
WIRE -32 240 -48 240
WIRE 144 240 144 128
WIRE 144 240 112 240
WIRE 208 240 208 144
WIRE 304 240 208 240
WIRE 528 240 528 160
WIRE 528 240 304 240
WIRE -48 288 -48 240
WIRE 208 368 208 240
WIRE 208 368 -48 368
FLAG 304 240 0
FLAG 304 16 M
FLAG 144 128 G
FLAG -48 128 C
SYMBOL nmos 160 48 R0
SYMATTR InstName M1
SYMATTR Value 2N7002
SYMBOL res 128 112 R90
WINDOW 0 0 56 VBottom 2
WINDOW 3 32 56 VTop 2
SYMATTR InstName R1
SYMATTR Value 100
SYMBOL res 128 224 R90
WINDOW 0 0 56 VBottom 2
WINDOW 3 32 56 VTop 2
SYMATTR InstName R2
SYMATTR Value {Roff}
SYMBOL diode 32 224 R90
WINDOW 0 0 32 VBottom 2
WINDOW 3 77 -68 VTop 2
SYMATTR InstName D1
SYMATTR Value RB541VM-30
SYMATTR Description Diode
SYMATTR Type diode
SYMBOL voltage 528 64 R0
SYMATTR InstName V1
SYMATTR Value 50
SYMBOL ind 368 -128 R0
SYMATTR InstName L1
SYMATTR Value 300µ
SYMBOL nmos 160 -112 R0
SYMATTR InstName M2
SYMATTR Value 2N7002
SYMBOL voltage -48 272 R0
WINDOW 3 21 147 Left 2
WINDOW 123 0 0 Left 0
WINDOW 39 0 0 Left 0
SYMATTR InstName V2
SYMATTR Value PULSE(0 10 0 20n 20n 1u 2u)
TEXT -72 -48 Left 2 !.ic i(L1)=100m
TEXT -152 24 Left 2 !.step param Roff list 1k 5
TEXT -152 392 Left 2 !.tran 0 1.2u 1u
