Version 4.1
SHEET 1 3428 1236
WIRE 1472 80 1312 80
WIRE 1312 128 1312 80
WIRE 288 160 272 160
WIRE 384 160 368 160
WIRE 496 160 384 160
WIRE 736 160 496 160
WIRE 1040 224 896 224
WIRE 1184 224 1120 224
WIRE 1184 240 1184 224
WIRE 1312 240 1312 208
WIRE 1504 240 1312 240
WIRE 1536 240 1504 240
WIRE 1616 240 1536 240
WIRE 1312 272 1312 240
WIRE 384 288 384 160
WIRE 272 304 272 160
WIRE 736 304 736 240
WIRE 896 304 896 224
WIRE 896 304 736 304
WIRE 1536 304 1536 288
WIRE 1808 320 1808 272
WIRE 1184 368 1184 320
WIRE 1536 368 1536 304
WIRE 1568 368 1536 368
WIRE 1616 368 1616 320
WIRE 1616 368 1568 368
WIRE 496 400 496 240
WIRE 896 400 496 400
WIRE 496 448 496 400
WIRE 736 448 736 304
WIRE 896 512 896 400
WIRE 1184 512 1184 432
WIRE 1184 512 896 512
WIRE 1312 512 1312 352
WIRE 1472 512 1472 80
WIRE 272 528 272 384
WIRE 320 528 272 528
WIRE 384 528 384 352
WIRE 384 528 320 528
WIRE 496 528 384 528
WIRE 736 528 496 528
FLAG 1312 576 0
FLAG 1472 576 0
FLAG 480 768 0
FLAG 480 688 c1
FLAG 1808 320 0
FLAG 608 912 0
FLAG 608 832 c2
FLAG 544 512 0
FLAG 544 224 0
FLAG 784 224 0
FLAG 784 512 0
FLAG 544 176 c1
FLAG 784 464 c1
FLAG 544 464 c2
FLAG 784 176 c2
FLAG 320 528 0
FLAG 1568 368 0
FLAG 1504 240 vout
SYMBOL ind 1168 224 R0
SYMATTR InstName L1
SYMATTR Value {Lm}
SYMATTR Type ind
SYMBOL ind 1136 208 R90
WINDOW 0 5 56 VBottom 2
WINDOW 3 32 56 VTop 2
SYMATTR InstName LrR
SYMATTR Value {Lr}
SYMBOL cap 1168 368 R0
SYMATTR InstName C8
SYMATTR Value {8*Cru}
SYMBOL ind 1296 112 R0
SYMATTR InstName L2
SYMATTR Value {L_sec}
SYMATTR Type ind
SYMBOL ind 1296 256 R0
SYMATTR InstName L3
SYMATTR Value {L_sec}
SYMATTR Type ind
SYMBOL diode 1328 576 R180
WINDOW 0 24 64 Left 2
WINDOW 3 24 0 Left 2
SYMATTR InstName D1
SYMATTR Value MyDiode
SYMBOL diode 1488 576 R180
WINDOW 0 24 64 Left 2
WINDOW 3 24 0 Left 2
SYMATTR InstName D2
SYMATTR Value MyDiode
SYMBOL voltage 480 672 R0
WINDOW 123 0 0 Left 0
WINDOW 39 0 0 Left 0
SYMATTR InstName V2
SYMATTR Value PULSE(0 5 0 10n 10n {t_on} {period})
SYMBOL voltage 1808 176 R0
WINDOW 123 0 0 Left 0
WINDOW 39 24 124 Left 2
SYMATTR SpiceLine Rser=1m
SYMATTR InstName V1
SYMATTR Value 48
SYMBOL voltage 608 816 R0
WINDOW 123 0 0 Left 0
WINDOW 39 0 0 Left 0
SYMATTR InstName V4
SYMATTR Value PULSE(0 5 {period/2} 10n 10n {t_on} {period})
SYMBOL sw 496 256 R180
SYMATTR InstName S1
SYMBOL sw 496 544 R180
SYMATTR InstName S2
SYMBOL sw 736 256 R180
SYMATTR InstName S3
SYMBOL sw 736 544 R180
SYMATTR InstName S4
SYMBOL voltage 272 288 R0
WINDOW 123 0 0 Left 0
WINDOW 39 0 0 Left 0
SYMATTR InstName V3
SYMATTR Value SINE(0 314 50)
SYMBOL cap 368 288 R0
SYMATTR InstName C1
SYMATTR Value 1µ
SYMBOL ind 384 144 R90
WINDOW 0 5 56 VBottom 2
WINDOW 3 32 56 VTop 2
SYMATTR InstName L4
SYMATTR Value 5µ
SYMBOL cap 1520 240 R0
SYMATTR InstName C2
SYMATTR Value {Co}
SYMBOL res 1600 224 R0
SYMATTR InstName R1
SYMATTR Value 10
TEXT 264 672 Left 2 !.tran 60m
TEXT 280 600 Left 2 !.param Cru=15n Lr=21.8u Lm=65.4u L_sec=4.087u ncapo=7 Co=120u
TEXT 1128 24 Left 2 !k L1 L2 L3 1
TEXT 1144 -184 Left 2 !.param f_sw = 100k       ; Set your switching frequency (e.g., 100 kHz)\n.param dt = 200n         ; Set Dead-Time for Zero Voltage Switching (ZVS)\n.param period = 1/f_sw   ; Calculates total period\n.param t_on = (period/2) - dt ; Calculates ON time for 50% duty cycle
TEXT 1144 -32 Left 2 !.model MyDiode D(Ron=0.01 Roff=10Meg Vfwd=0.6 epsilon=0.05)
TEXT 392 8 Left 2 !.model SW SW(Ron = 10m Roff = 1Meg vt=0.5 vh = 0.1)
TEXT 408 80 Left 2 !.model MyDiode D(Ron=0.01 Roff=10Meg Vfwd=0.6 epsilon=0.05)
TEXT 112 1080 Left 2 ;How to Control This (The Ultimate Single-Stage Strategy)\nIn a real, high-end Single-Stage LLC, the DSP (Digital Controller) uses a Hybrid Control Strategy:\nAt the Peak of the AC Sine Wave (High Voltage):\nThe secondary MOSFETs act exactly like normal diodes (Synchronous Rectification). The primary bridge uses PFM (Frequency Control) to shape the current, exactly like we did in the LTspice equations earlier.\nAt the Zero-Crossings of the AC Sine Wave (Low Voltage):\nThe primary bridge stops changing frequency and locks to a fixed frequency. The secondary MOSFETs switch to PWM (Pulse Width Modulation) Control. They intentionally short-circuit the secondary winding for microseconds at a time to "boost" the tiny AC voltage up to the 48V output.
TEXT 1784 80 Left 2 !.ic v(vout)=60
