Version 4.1
SHEET 1 1636 680
WIRE -352 -464 -464 -464
WIRE -96 -464 -352 -464
WIRE 160 -464 -96 -464
WIRE 272 -464 160 -464
WIRE 160 -448 160 -464
WIRE 944 -416 848 -416
WIRE 1008 -416 944 -416
WIRE 1072 -416 1008 -416
WIRE 1008 -384 1008 -416
WIRE 272 -352 272 -464
WIRE 416 -352 352 -352
WIRE 848 -352 576 -352
WIRE -672 -336 -752 -336
WIRE -640 -336 -672 -336
WIRE -464 -336 -464 -384
WIRE -464 -336 -560 -336
WIRE -352 -336 -352 -400
WIRE -352 -336 -464 -336
WIRE -96 -320 -96 -400
WIRE 160 -320 160 -368
WIRE 160 -320 -96 -320
WIRE 160 -288 160 -320
WIRE 160 -288 -688 -288
WIRE -464 -272 -464 -336
WIRE 944 -272 944 -352
WIRE 944 -272 576 -272
WIRE -688 -256 -688 -288
WIRE -688 -256 -752 -256
WIRE 160 -256 160 -288
WIRE 848 -240 848 -352
WIRE 944 -240 944 -272
WIRE -464 -176 -464 -208
WIRE 160 -176 160 -192
WIRE 160 -176 -464 -176
WIRE 416 -176 416 -272
WIRE 416 -176 160 -176
WIRE 848 -128 848 -176
WIRE 944 -128 944 -176
WIRE 944 -128 848 -128
WIRE 1008 -128 1008 -320
WIRE 1008 -128 944 -128
WIRE 1072 -128 1072 -336
WIRE 1072 -128 1008 -128
FLAG 256 112 0
FLAG -464 -176 0
FLAG 848 -128 0
FLAG -512 -448 cmd1
FLAG 112 -432 cmd2
FLAG -512 -400 0
FLAG 112 -384 0
FLAG 256 32 cmd1
FLAG 416 -48 cmd2
FLAG 416 32 0
FLAG 1008 -416 Vdc
FLAG -672 -336 AC1
FLAG -688 -256 AC2
SYMBOL voltage 256 16 R0
WINDOW 123 0 0 Left 0
WINDOW 39 0 0 Left 0
SYMATTR InstName V1
SYMATTR Value PULSE(-5 10 0 {Tr} {Tf} {T/2-Tr-Tf} {T})
SYMBOL ind 400 -368 R0
SYMATTR InstName L1
SYMATTR Value {Lmp}
SYMATTR Type ind
SYMATTR SpiceLine Rser=1m
SYMBOL ind 560 -368 R0
SYMATTR InstName L2
SYMATTR Value {Lms}
SYMATTR Type ind
SYMATTR SpiceLine Rser=1m
SYMBOL ind 256 -336 R270
WINDOW 0 32 56 VTop 2
WINDOW 3 5 56 VBottom 2
SYMATTR InstName L3
SYMATTR Value {L1}
SYMATTR SpiceLine Rser=1m
SYMBOL diode 864 -352 R180
WINDOW 0 24 64 Left 2
WINDOW 3 24 0 Left 2
SYMATTR InstName D1
SYMBOL diode 864 -176 R180
WINDOW 0 24 64 Left 2
WINDOW 3 24 0 Left 2
SYMATTR InstName D2
SYMBOL diode 960 -352 R180
WINDOW 0 24 64 Left 2
WINDOW 3 24 0 Left 2
SYMATTR InstName D3
SYMBOL diode 960 -176 R180
WINDOW 0 24 64 Left 2
WINDOW 3 24 0 Left 2
SYMATTR InstName D4
SYMBOL res 1056 -432 R0
SYMATTR InstName R1
SYMATTR Value 50
SYMBOL sw 160 -352 M180
SYMATTR InstName S1
SYMBOL sw -464 -368 M180
SYMATTR InstName S2
SYMBOL cap -480 -272 R0
SYMATTR InstName C1
SYMATTR Value 1 
SYMBOL cap 144 -256 R0
SYMATTR InstName C2
SYMATTR Value 1 
SYMBOL voltage -752 -352 R0
WINDOW 3 33 161 Left 2
WINDOW 123 0 0 Left 0
WINDOW 39 0 0 Left 0
SYMATTR InstName V2
SYMATTR Value SINE(0 314 50)
SYMBOL voltage 416 -64 R0
WINDOW 123 0 0 Left 0
WINDOW 39 0 0 Left 0
SYMATTR InstName V3
SYMATTR Value PULSE(-5 10 {T/2+Td} {Tr} {Tf} {T/2-Tr-Tf-2*Td} {T})
SYMBOL ind -544 -352 R90
WINDOW 0 5 56 VBottom 2
WINDOW 3 32 56 VTop 2
SYMATTR InstName L4
SYMATTR Value 20 
SYMBOL cap 992 -384 R0
SYMATTR InstName C3
SYMATTR Value 1 
SYMATTR SpiceLine Rser=1m Lser=100n
SYMBOL cap -368 -464 R0
SYMATTR InstName C4
SYMATTR Value {Coss}
SYMBOL cap -112 -464 R0
SYMATTR InstName C5
SYMATTR Value {Coss}
TEXT 104 -96 Left 2 !.tran 0 40m 20m
TEXT 104 -520 Left 2 !.param vin=400 vout=300 T=10u Tr=10n Tf=10n Td=100n
TEXT 104 -592 Left 2 !.param Lmp=60u Lms=60u L1=20u
TEXT 448 -408 Left 2 !k L1 L2 0.95
TEXT 352 216 Left 2 !.ic i(L3)=0
TEXT 96 -560 Left 2 !.model SW SW (vh =0.5 Vt=0.5 Ron = 1m Roff=1Meg)
TEXT -328 -584 Left 2 !.param Coss = 100p
TEXT -640 264 Left 2 ;see: https://www.renesas.com/en/blogs/revolutionize-power-design-gan-bidirectional-switches\nSolution of the DC ripple \n- Adding big DC bulk capa \n- Active Power Decoupling (APD)

