Version 4.1
SHEET 1 2132 680
WIRE 1424 -752 928 -752
WIRE 1424 -656 1424 -752
WIRE 1200 -576 1152 -576
WIRE 1376 -576 1280 -576
WIRE 928 -560 928 -752
WIRE 1424 -400 1424 -560
WIRE 1424 -400 1328 -400
WIRE 1472 -400 1424 -400
WIRE 1568 -400 1472 -400
WIRE 1712 -400 1648 -400
WIRE 1840 -400 1712 -400
WIRE 1712 -384 1712 -400
WIRE 1840 -384 1840 -400
WIRE 1424 -336 1424 -400
WIRE 1712 -288 1712 -304
WIRE 1840 -288 1840 -304
WIRE 1840 -288 1712 -288
WIRE 1200 -256 1120 -256
WIRE 1376 -256 1280 -256
WIRE 1712 -256 1712 -288
WIRE 1712 -256 1600 -256
WIRE 1600 -224 1600 -256
WIRE 1600 -128 1600 -160
WIRE 1712 -128 1600 -128
WIRE 928 -112 928 -480
WIRE 1424 -112 1424 -240
WIRE 1424 -112 928 -112
WIRE 1712 -112 1712 -128
WIRE 96 64 -352 64
WIRE -480 96 -544 96
WIRE -352 96 -352 64
WIRE -352 96 -400 96
WIRE 48 112 -112 112
WIRE 144 112 48 112
WIRE -112 144 -112 112
WIRE 96 144 96 64
WIRE 144 144 96 144
WIRE 384 144 384 32
WIRE 384 144 304 144
WIRE 400 144 384 144
WIRE 144 208 16 208
WIRE 400 208 304 208
WIRE 144 240 112 240
WIRE 112 256 112 240
WIRE 48 352 48 112
WIRE 400 352 400 208
WIRE 400 352 48 352
WIRE -16 400 -32 400
WIRE 16 400 16 208
WIRE 16 400 -16 400
WIRE -16 432 -16 400
FLAG 112 256 0
FLAG -112 224 0
FLAG -656 -464 0
FLAG -656 -544 Vcmd
FLAG -32 512 0
FLAG -16 512 0
FLAG -544 96 0
FLAG 304 272 cmdl
FLAG 304 112 cmdh
FLAG 304 176 vs
FLAG 288 240 0
FLAG 304 240 0
FLAG 144 176 0
FLAG 464 144 vs
FLAG 928 -112 0
FLAG 1712 -112 0
FLAG 1152 -576 cmdh
FLAG 1120 -256 cmdl
FLAG 1328 -400 vs
FLAG 1472 -464 0
FLAG 384 32 vb
SYMBOL IR2110 352 192 R0
WINDOW 3 -146 -137 Left 2
SYMATTR Value IR2110
SYMATTR InstName X1
SYMATTR Prefix X
SYMBOL voltage -112 128 R0
WINDOW 123 0 0 Left 0
WINDOW 39 0 0 Left 0
SYMATTR InstName V1
SYMATTR Value 10
SYMBOL diode 416 208 R180
WINDOW 0 24 64 Left 2
WINDOW 3 24 0 Left 2
SYMATTR InstName D1
SYMATTR Value UPSC600
SYMBOL cap 464 128 R90
WINDOW 0 0 32 VBottom 2
WINDOW 3 32 32 VTop 2
SYMATTR InstName C1
SYMATTR Value .47µ
SYMBOL voltage -656 -560 R0
WINDOW 123 0 0 Left 2
WINDOW 39 0 0 Left 2
SYMATTR InstName V2
SYMATTR Value SINE(0 1 100k)
SYMBOL bv -384 96 R90
WINDOW 0 -32 56 VBottom 2
WINDOW 3 32 56 VTop 2
SYMATTR InstName B3
SYMATTR Value V= 10*(v(Vcmd)>{ Thresh})
SYMBOL bv -16 416 R0
SYMATTR InstName B4
SYMATTR Value V= 10*(v(Vcmd)<{-Thresh})
SYMBOL ind 1696 -400 R0
SYMATTR InstName L1
SYMATTR Value {Lm}
SYMBOL ind 1664 -416 R90
WINDOW 0 5 56 VBottom 2
WINDOW 3 32 56 VTop 2
SYMATTR InstName LrR1
SYMATTR Value {Lr}
SYMBOL cap 1616 -160 R180
WINDOW 0 24 56 Left 2
WINDOW 3 24 8 Left 2
SYMATTR InstName C2
SYMATTR Value {8*Cru}
SYMBOL nmos 1376 -656 R0
SYMATTR InstName M1
SYMATTR Value IXTH88N30P
SYMBOL nmos 1376 -336 R0
SYMATTR InstName M2
SYMATTR Value IXTH88N30P
SYMBOL voltage 928 -576 R0
WINDOW 123 0 0 Left 2
WINDOW 39 24 124 Left 2
SYMATTR SpiceLine Rser=1m
SYMATTR InstName V3
SYMATTR Value 400
SYMBOL res 1824 -400 R0
SYMATTR InstName R_load_R1
SYMATTR Value 22.6
SYMBOL res 1296 -592 R90
WINDOW 0 0 56 VBottom 2
WINDOW 3 32 56 VTop 2
SYMATTR InstName R1
SYMATTR Value 10
SYMBOL res 1296 -272 R90
WINDOW 0 0 56 VBottom 2
WINDOW 3 32 56 VTop 2
SYMATTR InstName R2
SYMATTR Value 10
SYMBOL cap 1456 -464 R0
SYMATTR InstName C3
SYMATTR Value 10p
TEXT -72 -32 Left 2 !.include IR2110.lib
TEXT -144 360 Left 2 ;.tran 1m
TEXT -680 -640 Left 2 !.param Freq = 100k Thresh=0.2
TEXT -664 -416 Left 2 !.tran 30u
TEXT -664 -344 Left 2 !.param Cru=15n Lr=21.8u Lm=65.4u
TEXT 336 -96 Left 2 !*.ic v(vb)=10 v(vs)=0
