Version 4.1
SHEET 1 880 680
WIRE 256 48 64 48
WIRE 272 48 256 48
WIRE 336 48 272 48
WIRE 448 48 400 48
WIRE 64 80 64 48
WIRE 256 80 256 48
WIRE 448 96 448 48
WIRE 64 192 64 160
WIRE 256 192 256 144
FLAG 272 48 Vo12
FLAG 448 160 0
FLAG 448 48 Vo33
FLAG 256 192 0
FLAG 64 192 0
SYMBOL cap 240 80 R0
SYMATTR InstName C1
SYMATTR Value 610”
SYMATTR SpiceLine Rser=1m Rpar=1meg
SYMBOL current 64 160 R180
WINDOW 0 24 80 Left 2
WINDOW 3 24 0 Left 2
WINDOW 123 0 0 Left 0
WINDOW 39 0 0 Left 0
SYMATTR InstName Id_avg
SYMATTR Value 790m
SYMBOL cap 432 96 R0
SYMATTR InstName C2
SYMATTR Value 270”
SYMBOL diode 336 64 R270
WINDOW 0 32 32 VTop 2
WINDOW 3 0 32 VBottom 2
SYMATTR InstName D1
SYMATTR Value 1N5818
SYMATTR Description Diode
SYMATTR Type diode
TEXT 96 216 Left 2 !.tran 3m
TEXT 112 -40 Left 2 !.ic v(Vo12)=0 v(Vo33)=1.8
