Version 4.1
SHEET 1 2480 680
WIRE 448 -240 320 -240
WIRE 544 -240 512 -240
WIRE 320 -224 320 -240
WIRE -96 -208 -256 -208
WIRE 96 -208 -96 -208
WIRE 544 -208 544 -240
WIRE -96 -192 -96 -208
WIRE 96 -192 96 -208
WIRE -256 -176 -256 -208
WIRE -96 -112 -96 -128
WIRE 16 -112 -96 -112
WIRE -96 -96 -96 -112
WIRE 96 -96 96 -112
WIRE 320 -96 320 -144
WIRE -96 -16 -96 -32
WIRE -96 -16 -176 -16
WIRE -16 -16 -96 -16
WIRE 96 -16 -16 -16
WIRE -176 0 -176 -16
WIRE -256 48 -256 -112
WIRE -176 112 -176 64
FLAG 544 -144 0
FLAG 320 -16 0
FLAG 544 -240 vout
FLAG -96 -208 Vin
FLAG -16 -16 Vsn0
FLAG -256 48 0
FLAG 16 -112 VsnM
FLAG -176 112 0
SYMBOL ind 80 -208 R0
SYMATTR InstName Lmp
SYMATTR Value 500µ
SYMATTR Type ind
SYMBOL ind 336 -128 R180
WINDOW 0 36 80 Left 2
WINDOW 3 36 40 Left 2
SYMATTR InstName Lms
SYMATTR Value 11.8µ
SYMATTR Type ind
SYMATTR SpiceLine Rser=100m
SYMBOL ind 336 0 R180
WINDOW 0 36 80 Left 2
WINDOW 3 36 40 Left 2
SYMATTR InstName Llk2
SYMATTR Value 1µ
SYMATTR Type ind
SYMBOL cap 528 -208 R0
SYMATTR InstName C1
SYMATTR Value 470µ
SYMBOL ind 80 -112 R0
SYMATTR InstName Llk1
SYMATTR Value 5µ
SYMBOL cap -112 -192 R0
SYMATTR InstName C3
SYMATTR Value 10n
SYMBOL diode -80 -32 R180
WINDOW 0 24 64 Left 2
WINDOW 3 24 0 Left 2
SYMATTR InstName D2
SYMBOL cap -272 -176 R0
SYMATTR InstName C4
SYMATTR Value 4µ
SYMBOL cap -192 0 R0
SYMATTR InstName C5
SYMATTR Value 50p
SYMATTR SpiceLine Rpar=100k
SYMBOL diode 448 -224 R270
WINDOW 0 32 32 VTop 2
WINDOW 3 0 32 VBottom 2
SYMATTR InstName D1
SYMATTR Value SB2100
SYMATTR Prefix X
SYMATTR Description Diode
SYMATTR Type diode
TEXT 120 -224 Left 2 !k Lmp Lms 1
TEXT -256 168 Left 2 !.ic i(Lmp)=0.250 i(Lms)=0 i(Llk2)=0 v(vout)=11.3 v(Vsn0)=0 v(Vin)=350 v(VsnM)=450
TEXT -16 24 Left 2 !.tran 0 2u 1n
TEXT -128 -360 Left 2 !.include sb2100_spice.lib
