Version 4.1
SHEET 1 944 680
WIRE 144 -144 -416 -144
WIRE 384 -144 144 -144
WIRE 384 -96 384 -144
WIRE 144 -48 144 -144
WIRE 384 16 384 -16
WIRE 384 16 272 16
WIRE 48 64 -48 64
WIRE 144 64 144 32
WIRE 144 64 48 64
WIRE 208 64 144 64
WIRE 656 64 560 64
WIRE 672 64 656 64
WIRE 768 64 672 64
WIRE -416 80 -416 -144
WIRE 672 80 672 64
WIRE -48 112 -48 64
WIRE 272 160 272 112
WIRE 272 160 16 160
WIRE 560 176 560 144
WIRE 576 176 560 176
WIRE 672 176 672 144
WIRE 672 176 640 176
WIRE 768 176 768 144
WIRE 768 176 672 176
WIRE 144 224 144 144
WIRE 160 224 144 224
WIRE 384 224 224 224
WIRE 272 240 272 160
WIRE 384 240 384 224
WIRE -416 368 -416 160
WIRE -128 368 -416 368
WIRE -48 368 -48 208
WIRE -48 368 -128 368
WIRE 272 368 272 320
WIRE 272 368 -48 368
WIRE 384 368 384 320
WIRE 384 368 272 368
WIRE 384 416 320 416
WIRE 416 416 384 416
WIRE 48 432 48 64
WIRE 208 432 48 432
WIRE 320 432 320 416
WIRE 16 496 16 160
WIRE 208 496 16 496
WIRE 384 496 320 496
WIRE 384 560 384 496
WIRE 384 576 384 560
FLAG 672 176 0
FLAG -128 368 0
FLAG 656 64 VOUT
FLAG 416 416 VOUT
FLAG 384 624 0
SYMBOL npn 208 16 R0
SYMATTR InstName Q1
SYMATTR Value 2SCR346P
SYMBOL npn 16 112 M0
SYMATTR InstName Q2
SYMATTR Value 2SCR346P
SYMBOL res 128 -64 R0
SYMATTR InstName R1
SYMATTR Value 5.1Meg
SYMBOL ind 368 -112 R0
SYMATTR InstName L170
SYMATTR Value 5780µ
SYMATTR Type ind
SYMBOL ind 368 224 R0
SYMATTR InstName L11
SYMATTR Value 24.2µ
SYMATTR Type ind
SYMBOL ind 576 160 R180
WINDOW 0 36 80 Left 2
WINDOW 3 36 40 Left 2
SYMATTR InstName L112
SYMATTR Value 24.2µ
SYMATTR Type ind
SYMBOL res 256 224 R0
SYMATTR InstName R2
SYMATTR Value 6
SYMBOL cap 224 208 R90
WINDOW 0 0 32 VBottom 2
WINDOW 3 32 32 VTop 2
SYMATTR InstName C3
SYMATTR Value 4.7n
SYMBOL res 128 48 R0
SYMATTR InstName R3
SYMATTR Value 1K
SYMBOL Contrib\\Wurth\\Optoelectronics\\Optocoupler\\WL-OCPT\\WL-OCPT_Series_817 272 464 M0
SYMATTR InstName Q3
SYMBOL diode 640 160 R90
WINDOW 0 0 32 VBottom 2
WINDOW 3 32 32 VTop 2
SYMATTR InstName D1
SYMBOL cap 656 80 R0
SYMATTR InstName C1
SYMATTR Value 220µ
SYMBOL res 752 48 R0
SYMATTR InstName R_LOAD
SYMATTR Value 40
SYMBOL res 368 400 R0
SYMATTR InstName R4
SYMATTR Value 100
SYMBOL diode 400 624 R180
WINDOW 0 24 64 Left 2
WINDOW 3 24 0 Left 2
SYMATTR InstName D2
SYMATTR Value 1N750
SYMATTR Description Diode
SYMATTR Type diode
SYMBOL voltage -416 64 R0
WINDOW 123 0 0 Left 0
WINDOW 39 24 124 Left 2
SYMATTR InstName V1
SYMATTR Value 314
SYMATTR SpiceLine Rser=100m
TEXT -448 648 Left 2 !.tran 5M
TEXT 376 -256 Left 2 !k L170 L11 L112 1
