Version 4.1
SHEET 1 880 680
WIRE -144 0 -272 0
WIRE 160 0 -144 0
WIRE 160 64 160 0
WIRE -272 112 -272 0
WIRE -144 112 -144 0
WIRE 464 128 288 128
WIRE 112 176 112 144
WIRE 160 176 160 160
WIRE 160 176 112 176
WIRE 288 176 288 128
WIRE 288 176 160 176
WIRE 304 176 288 176
WIRE 464 176 464 128
WIRE 464 176 384 176
WIRE 528 176 464 176
WIRE 160 208 160 176
WIRE 528 208 528 176
WIRE 112 288 80 288
WIRE -272 336 -272 192
WIRE -144 336 -144 176
WIRE -144 336 -272 336
WIRE 160 336 160 304
WIRE 160 336 -144 336
WIRE 288 336 160 336
WIRE 352 336 288 336
WIRE 464 336 416 336
WIRE 528 336 528 288
WIRE 528 336 464 336
WIRE 288 368 288 336
WIRE 464 368 464 336
WIRE 464 368 288 368
SYMBOL nmos 112 64 R0
WINDOW 0 56 4 Left 2
WINDOW 3 56 72 Invisible 2
SYMATTR InstName Q_Heigh_side
SYMBOL nmos 112 208 R0
WINDOW 3 56 72 Invisible 2
SYMATTR InstName Q_Low_side
SYMBOL cap -160 112 R0
WINDOW 0 24 8 Invisible 2
WINDOW 3 43 36 Left 2
SYMATTR InstName C1
SYMATTR Value 4µF
SYMBOL ind 400 160 R90
WINDOW 0 5 56 VBottom 2
WINDOW 3 32 56 Invisible 2
SYMATTR InstName Lr
SYMBOL ind 544 304 R180
WINDOW 0 41 53 Left 2
WINDOW 3 36 40 Invisible 2
SYMATTR InstName Lm
SYMBOL cap 416 320 R90
WINDOW 0 0 32 VBottom 2
WINDOW 3 32 32 Invisible 2
SYMATTR InstName Cr
SYMBOL voltage -272 96 R0
WINDOW 0 24 16 Invisible 2
WINDOW 3 24 96 Invisible 2
SYMATTR InstName V1
TEXT 560 96 Left 2 ;Inductance\ncurrent
TEXT 576 240 Left 2 ;Inductance\nVoltage
TEXT -48 248 Left 2 ;Driver and \ncontrol
TEXT 296 392 Left 2 ;bypassing the Cr
TEXT 288 112 Left 2 ;bypassing the Lr
LINE Normal 560 336 560 192 2
LINE Normal 576 208 560 192 2
LINE Normal 544 208 576 208 2
LINE Normal 560 192 544 208 2
LINE Normal 560 192 560 192 2
LINE Normal 512 160 560 112 2
RECTANGLE Normal 80 272 80 336 2
RECTANGLE Normal -64 224 80 336 2
CIRCLE Normal 512 208 480 144 2
