Version 4.1
SHEET 1 880 680
WIRE -144 0 -272 0
WIRE 160 0 -144 0
WIRE 432 0 160 0
WIRE 432 32 432 0
WIRE 160 64 160 0
WIRE -272 112 -272 0
WIRE -144 112 -144 0
WIRE 112 176 112 144
WIRE 160 176 160 160
WIRE 160 176 112 176
WIRE 432 176 432 112
WIRE 432 176 160 176
WIRE 160 208 160 176
WIRE 112 288 80 288
WIRE -272 336 -272 192
WIRE -144 336 -144 176
WIRE -144 336 -272 336
WIRE 160 336 160 304
WIRE 160 336 -144 336
SYMBOL nmos 112 64 R0
WINDOW 0 56 4 Left 2
WINDOW 3 56 72 Invisible 2
SYMATTR InstName Q_Heigh_side
SYMBOL nmos 112 208 R0
WINDOW 3 56 72 Invisible 2
SYMATTR InstName Q_Low_side
SYMBOL cap -160 112 R0
WINDOW 0 24 8 Invisible 2
WINDOW 3 43 36 Left 2
SYMATTR InstName C1
SYMATTR Value 4”F
SYMBOL ind 448 128 R180
WINDOW 0 41 53 Left 2
WINDOW 3 36 40 Invisible 2
SYMATTR InstName Lm
SYMATTR Type ind
SYMBOL voltage -272 96 R0
WINDOW 0 24 16 Invisible 2
WINDOW 3 24 96 Invisible 2
SYMATTR InstName V1
TEXT 416 224 Left 2 ;Inductance\ncurrent
TEXT 480 64 Left 2 ;Inductance\nVoltage
TEXT -48 248 Left 2 ;Driver and \ncontrol
LINE Normal 464 160 464 16 2
LINE Normal 480 32 464 16 2
LINE Normal 448 32 480 32 2
LINE Normal 464 16 448 32 2
LINE Normal 464 16 464 16 2
LINE Normal 416 240 368 208 2
RECTANGLE Normal 80 272 80 336 2
RECTANGLE Normal -64 224 80 336 2
CIRCLE Normal 384 208 352 144 2
