Version 4.1
SHEET 1 880 680
WIRE -96 32 -176 32
WIRE 224 32 -32 32
WIRE 416 32 224 32
WIRE 432 32 416 32
WIRE -32 64 -32 32
WIRE -320 80 -432 80
WIRE -192 80 -240 80
WIRE -176 80 -176 32
WIRE -176 80 -192 80
WIRE -160 80 -176 80
WIRE -432 96 -432 80
WIRE 144 128 -32 128
WIRE 224 128 224 112
WIRE 224 128 144 128
WIRE 224 144 224 128
WIRE -432 192 -432 176
WIRE -160 192 -160 160
WIRE -160 192 -432 192
WIRE -160 272 -160 192
WIRE -144 272 -160 272
WIRE -32 272 -32 192
WIRE -32 272 -80 272
WIRE 224 272 224 224
WIRE 224 272 -32 272
WIRE 416 272 416 112
WIRE 416 272 224 272
WIRE 432 272 416 272
FLAG 144 128 0
FLAG 432 32 VoutP
FLAG 432 272 VoutN
FLAG -192 80 Vds_Prim
SYMBOL ind -176 64 R0
SYMATTR InstName L1
SYMATTR Value 82µ
SYMATTR Type ind
SYMBOL ind 208 16 R0
SYMATTR InstName L2
SYMATTR Value 5125n
SYMATTR Type ind
SYMBOL voltage -432 80 R0
WINDOW 3 34 150 Left 2
WINDOW 123 0 0 Left 0
WINDOW 39 0 0 Left 0
SYMATTR Value PULSE(-20 20 0 50n 50n 5u 10u)
SYMATTR InstName V1
SYMBOL res -224 64 R90
WINDOW 0 0 56 VBottom 2
WINDOW 3 32 56 VTop 2
SYMATTR InstName R1
SYMATTR Value 1m
SYMBOL ind 208 128 R0
SYMATTR InstName L3
SYMATTR Value 5125n
SYMATTR Type ind
SYMBOL cap -48 64 R0
SYMATTR InstName C1
SYMATTR Value {cp}
SYMBOL cap -32 16 R90
WINDOW 0 0 32 VBottom 2
WINDOW 3 32 32 VTop 2
SYMATTR InstName C2
SYMATTR Value {cp}
SYMBOL cap -80 256 R90
WINDOW 0 0 32 VBottom 2
WINDOW 3 32 32 VTop 2
SYMATTR InstName C3
SYMATTR Value {cp}
SYMBOL cap -48 128 R0
WINDOW 0 30 10 Left 2
SYMATTR InstName C4
SYMATTR Value {cp}
SYMBOL res 400 16 R0
SYMATTR InstName R_loss
SYMATTR Value 10k
TEXT -120 -16 Left 2 !k L1 L2 L3 0.8
TEXT -400 264 Left 2 !.tran 0 50u 10u
TEXT 32 312 Left 2 !.ic i(L1) = 0 i(L2) = 0
TEXT 72 -24 Left 2 !.param cp=200p
