Version 4.1
SHEET 1 1080 680
WIRE 112 0 -160 0
WIRE 112 32 112 0
WIRE -160 48 -160 0
WIRE 112 128 112 96
WIRE 112 128 64 128
WIRE 288 128 288 96
WIRE 288 128 112 128
WIRE 320 128 288 128
WIRE 320 144 320 128
WIRE 112 160 112 128
WIRE 64 192 64 128
WIRE -160 256 -160 128
WIRE -48 256 -160 256
WIRE 64 256 -48 256
WIRE 112 256 112 224
WIRE 112 256 64 256
WIRE 320 256 320 224
WIRE 320 256 112 256
FLAG -48 256 0
FLAG 288 96 m
SYMBOL cap 96 32 R0
SYMATTR InstName C1
SYMATTR Value {Ceq}
SYMBOL voltage -160 32 R0
WINDOW 123 0 0 Left 0
WINDOW 39 0 0 Left 0
SYMATTR InstName V1
SYMATTR Value {V_In_max}
SYMBOL cap 96 160 R0
SYMATTR InstName C2
SYMATTR Value {Ceq}
SYMBOL current 320 144 R0
WINDOW 123 0 0 Left 0
WINDOW 39 0 0 Left 0
SYMATTR InstName I1
SYMATTR Value {Ip_MosPeak}
SYMBOL diode 80 256 R180
WINDOW 0 24 64 Left 2
WINDOW 3 24 0 Left 2
SYMATTR InstName D1
TEXT 240 64 Left 2 !.param Ceq=133pF Lm=65.392u Ip_MosPeak=7.32138 V_In_max=400
TEXT 280 -40 Left 2 !.ic v(m)={V_In_max}
TEXT -192 280 Left 2 !.tran 0 30n 0 .1n
