Version 4.1
SHEET 1 1068 680
WIRE -96 272 -160 272
WIRE 48 272 -16 272
WIRE 144 272 48 272
WIRE 256 272 224 272
WIRE 320 272 256 272
WIRE 400 272 400 176
WIRE 400 272 320 272
WIRE 480 272 480 176
WIRE 496 272 480 272
WIRE 592 272 576 272
WIRE 672 272 592 272
WIRE 848 272 672 272
WIRE 928 272 912 272
WIRE 1024 272 928 272
WIRE 320 288 320 272
WIRE 928 304 928 272
WIRE -160 336 -160 272
WIRE 48 368 48 272
WIRE 400 368 400 272
WIRE 480 368 480 272
WIRE 480 368 464 368
WIRE 928 400 928 384
WIRE 1024 400 1024 272
WIRE 1024 400 928 400
WIRE -160 432 -160 400
WIRE 928 432 928 400
WIRE 48 448 48 432
WIRE 128 448 48 448
WIRE 160 448 128 448
WIRE 48 464 48 448
WIRE 128 464 128 448
WIRE 320 480 320 352
WIRE 592 480 320 480
WIRE 672 480 592 480
WIRE 48 576 48 544
WIRE 96 576 48 576
WIRE 128 576 128 544
WIRE 128 576 96 576
FLAG 928 432 0
FLAG 96 576 0
FLAG 592 480 0
FLAG -160 512 0
FLAG 848 192 0
FLAG 256 416 0
SYMBOL current 928 384 R180
WINDOW 0 24 80 Left 2
WINDOW 3 24 0 Left 2
WINDOW 123 24 -28 Left 2
WINDOW 39 0 0 Left 0
SYMATTR InstName I1
SYMATTR Value ""
SYMATTR Value2 AC 1
SYMBOL ind 496 160 R90
WINDOW 0 5 56 VBottom 2
WINDOW 3 32 56 VTop 2
SYMATTR InstName L2
SYMATTR Value 484µ
SYMBOL res 496 256 R90
WINDOW 0 0 56 VBottom 2
WINDOW 3 32 56 VTop 2
SYMATTR InstName R1
SYMATTR Value 1370
SYMBOL cap 464 352 R90
WINDOW 0 0 32 VBottom 2
WINDOW 3 32 32 VTop 2
SYMATTR InstName C1
SYMATTR Value 3.3p
SYMBOL cap 576 272 R0
SYMATTR InstName C2
SYMATTR Value 4.7n
SYMBOL cap 656 272 R0
SYMATTR InstName C3
SYMATTR Value 1n
SYMBOL res 656 320 R0
SYMATTR InstName R2
SYMATTR Value 500000
SYMBOL cap 304 288 R0
SYMATTR InstName C4
SYMATTR Value 4.7n
SYMBOL ind 240 256 R90
WINDOW 0 5 56 VBottom 2
WINDOW 3 32 56 VTop 2
SYMATTR InstName L1
SYMATTR Value 1µ
SYMBOL cap 32 368 R0
SYMATTR InstName C5
SYMATTR Value 0.1µ
SYMBOL res 32 448 R0
SYMATTR InstName R3
SYMATTR Value 1k
SYMBOL res 112 448 R0
SYMATTR InstName R4
SYMATTR Value 50
SYMBOL ind 0 256 R90
WINDOW 0 5 56 VBottom 2
WINDOW 3 32 56 VTop 2
SYMATTR InstName L3
SYMATTR Value 50µ
SYMBOL cap -176 336 R0
SYMATTR InstName C6
SYMATTR Value 4µ
SYMBOL res -176 416 R0
SYMATTR InstName R5
SYMATTR Value 5
SYMBOL voltage 848 288 R180
WINDOW 0 24 96 Left 2
WINDOW 3 24 16 Left 2
WINDOW 123 24 -12 Left 2
WINDOW 39 0 0 Left 0
SYMATTR InstName V1
SYMATTR Value ""
SYMATTR Value2 AC 1
SYMBOL cap 240 272 R0
SYMATTR InstName C7
SYMATTR Value 4.7n
SYMATTR SpiceLine Lser=1n
SYMBOL res 240 320 R0
SYMATTR InstName R6
SYMATTR Value 3
SYMBOL ind 592 256 R90
WINDOW 0 5 56 VBottom 2
WINDOW 3 32 56 VTop 2
SYMATTR InstName L4
SYMATTR Value 20n
TEXT 744 480 Left 2 !.ac dec 10 0.01Meg 100Meg
TEXT 160 448 Left 2 ;Vmeas
TEXT 168 72 Left 2 ;DIFF 100n
TEXT -296 568 Left 2 ;WE CAN REMOVE IT THIS 5 OHM
