Version 4.1
SHEET 1 1996 680
WIRE 112 96 -160 96
WIRE 112 128 112 96
WIRE 208 128 112 128
WIRE 112 144 112 128
WIRE 208 160 208 128
WIRE 128 240 112 240
WIRE 208 240 128 240
WIRE 64 272 64 224
WIRE 128 272 128 240
WIRE 128 272 64 272
WIRE 128 336 128 272
WIRE 128 336 112 336
WIRE -64 416 -176 416
WIRE 64 416 16 416
WIRE -176 432 -176 416
WIRE 112 480 112 432
FLAG -176 512 0
FLAG 112 480 0
FLAG -160 176 0
SYMBOL voltage -160 80 R0
WINDOW 123 0 0 Left 0
WINDOW 39 0 0 Left 0
SYMATTR InstName V1
SYMATTR Value 400
SYMBOL voltage -176 416 R0
WINDOW 123 0 0 Left 0
WINDOW 39 0 0 Left 0
SYMATTR InstName V2
SYMATTR Value PULSE(-5 10 0 100N 100N 1u 7u)
SYMBOL res 32 400 R90
WINDOW 0 0 56 VBottom 2
WINDOW 3 32 56 VTop 2
SYMATTR InstName R1
SYMATTR Value 3
SYMBOL nmos 64 336 R0
SYMATTR InstName M1
SYMATTR Value IPW60R060C7
SYMBOL ind 192 144 R0
SYMATTR InstName L1
SYMATTR Value 60µ
SYMBOL nmos 64 144 R0
SYMATTR InstName M2
SYMATTR Value IPW60R060C7
TEXT -208 536 Left 2 !.tran 50U
TEXT 312 168 Left 2 ;.include "StrongIRFET_LTSpice.lib"
TEXT 288 256 Left 2 !.model IPW60R060C7 NMOS(LEVEL=1 LAMBDA=0.0 VTO=3.986e+00 KP=3.500e+01 CGSO=2.7910e-09\n+ CGDO=5.8974e-11 LAMBDA=2.6455e-01)
TEXT 320 40 Left 2 !.ic i(L1)=0
