Version 4
SHEET 1 1604 680
WIRE 896 -64 400 -64
WIRE 896 -32 896 -64
WIRE 688 48 560 48
WIRE 848 48 768 48
WIRE 400 64 400 -64
WIRE 560 64 560 48
WIRE 560 192 560 144
WIRE 896 192 896 64
WIRE 896 192 560 192
WIRE 896 224 896 192
WIRE 992 224 992 176
WIRE 992 224 896 224
WIRE 1040 224 992 224
WIRE 1184 224 1120 224
WIRE 1312 224 1184 224
WIRE 1184 240 1184 224
WIRE 1312 240 1312 224
WIRE 896 288 896 224
WIRE 1184 336 1184 320
WIRE 1312 336 1312 320
WIRE 1312 336 1184 336
WIRE 672 368 560 368
WIRE 848 368 752 368
WIRE 1184 368 1184 336
WIRE 560 384 560 368
WIRE 400 496 400 144
WIRE 560 496 560 464
WIRE 560 496 400 496
WIRE 896 496 896 384
WIRE 896 496 560 496
FLAG -128 224 0
FLAG -128 144 Vcmd
FLAG 400 496 0
FLAG 992 176 Vm
FLAG 1184 432 0
SYMBOL ind 1168 224 R0
SYMATTR InstName L1
SYMATTR Value {Lm}
SYMBOL ind 1136 208 R90
WINDOW 0 5 56 VBottom 2
WINDOW 3 32 56 VTop 2
SYMATTR InstName Lr
SYMATTR Value {Lr}
SYMBOL nmos 848 -32 R0
SYMATTR InstName M1
SYMATTR Value IXTH88N30P
SYMBOL voltage -128 128 R0
WINDOW 123 0 0 Left 2
WINDOW 39 0 0 Left 2
SYMATTR InstName V3
SYMATTR Value SINE(0 1 {Freq})
SYMBOL bv 560 48 R0
SYMATTR InstName B1
SYMATTR Value V= 10*(v(Vcmd)>{ Thresh})
SYMBOL bv 560 368 R0
SYMATTR InstName B2
SYMATTR Value V= 10*(v(Vcmd)<{-Thresh})
SYMBOL nmos 848 288 R0
SYMATTR InstName M2
SYMATTR Value IXTH88N30P
SYMBOL voltage 400 48 R0
WINDOW 123 0 0 Left 2
WINDOW 39 24 124 Left 2
SYMATTR SpiceLine Rser=1m
SYMATTR InstName V1
SYMATTR Value 400
SYMBOL res 784 32 R90
WINDOW 0 0 56 VBottom 2
WINDOW 3 32 56 VTop 2
SYMATTR InstName R1
SYMATTR Value 3
SYMBOL res 768 352 R90
WINDOW 0 0 56 VBottom 2
WINDOW 3 32 56 VTop 2
SYMATTR InstName R2
SYMATTR Value 3
SYMBOL res 1296 224 R0
SYMATTR InstName R_load
SYMATTR Value {Re_110}
SYMBOL cap 1200 432 R180
WINDOW 0 24 56 Left 2
WINDOW 3 24 8 Left 2
SYMATTR InstName C3
SYMATTR Value {Cru}
TEXT -152 48 Left 2 !.param Thresh=0.05
TEXT -136 272 Left 2 !.tran 0 60u 20u
TEXT -136 344 Left 2 !.param Cru=120n Lr=21.8u Lm=65.4u Re_110=22.6
TEXT -152 424 Left 2 !.step param Freq  60k 156k 10k
TEXT -144 488 Left 2 !;.param Freq = 60k
