Version 4.1
SHEET 1 2064 808
WIRE 160 -192 144 -192
WIRE 256 -192 240 -192
WIRE 336 -192 256 -192
WIRE 432 -192 336 -192
WIRE 656 -144 576 -144
WIRE 784 -144 720 -144
WIRE 848 -144 784 -144
WIRE 976 -144 848 -144
WIRE 1040 -144 976 -144
WIRE 576 -96 576 -144
WIRE 256 -48 256 -128
WIRE 304 -48 256 -48
WIRE 336 -48 336 -112
WIRE 336 -48 304 -48
WIRE 432 -48 432 -192
WIRE 304 -16 304 -48
WIRE 432 48 432 32
WIRE 432 48 304 48
WIRE 528 48 432 48
WIRE 528 64 528 48
WIRE 432 80 432 48
WIRE 576 112 576 -16
FLAG 576 112 0
FLAG 144 -112 0
FLAG 432 160 0
FLAG 384 96 0
FLAG 384 224 0
FLAG 528 128 0
FLAG 592 -256 0
FLAG 592 -272 0
FLAG 592 -352 0
FLAG 848 -80 0
FLAG 976 -64 0
FLAG 784 -144 vout
SYMBOL ind2 416 -64 R0
SYMATTR InstName L1
SYMATTR Value 1700µ
SYMATTR Type ind
SYMATTR SpiceLine Rser=10m Rpar=10meg
SYMBOL ind2 592 0 R180
WINDOW 0 36 80 Left 2
WINDOW 3 36 40 Left 2
SYMATTR InstName L2
SYMATTR Value 40µ
SYMATTR Type ind
SYMATTR SpiceLine Rser=10m Rpar=10meg
SYMBOL voltage 144 -208 M0
WINDOW 123 0 0 Left 2
WINDOW 39 24 44 Left 2
SYMATTR SpiceLine Rser=100m
SYMATTR InstName V2
SYMATTR Value 400
SYMBOL cap 240 -192 R0
SYMATTR InstName C2
SYMATTR Value 10n
SYMBOL res 320 -208 R0
SYMATTR InstName R2
SYMATTR Value 82k
SYMBOL sw 432 64 R0
SYMATTR InstName S1
SYMATTR Value mysw
SYMBOL ind 576 -368 R0
SYMATTR InstName L3
SYMATTR Value 17µ
SYMBOL voltage 384 128 R0
WINDOW 123 0 0 Left 0
WINDOW 39 0 0 Left 0
SYMATTR InstName V1
SYMATTR Value PULSE(-5 10 0 50n 50n .9u 7.5u)
SYMBOL cap 512 64 R0
SYMATTR InstName C1
SYMATTR Value 37p
SYMBOL cap 832 -144 R0
SYMATTR InstName C3
SYMATTR Value 40µ
SYMATTR SpiceLine Rser=100m
SYMBOL res 960 -160 R0
SYMATTR InstName R1
SYMATTR Value 40
SYMBOL ind 256 -208 R90
WINDOW 0 5 56 VBottom 2
WINDOW 3 32 56 VTop 2
SYMATTR InstName L4
SYMATTR Value 100n
SYMBOL diode 320 48 R180
WINDOW 0 24 64 Left 2
WINDOW 3 24 0 Left 2
SYMATTR InstName D1
SYMATTR Value RF601BGE2D
SYMBOL diode 656 -128 R270
WINDOW 0 32 32 VTop 2
WINDOW 3 0 32 VBottom 2
SYMATTR InstName D2
SYMATTR Value RBR2LAM40A
SYMATTR Description Diode
SYMATTR Type diode
TEXT 568 552 Right 2 !.tran 3.44m
TEXT 456 -152 Left 2 !k L1 L2 0.99
TEXT 160 432 Left 2 !.model mysw SW(Ron=1 Roff=1Meg Vt=2 Vh=0)
TEXT 720 8 Left 2 !.ic v(vout)=12
