Version 4.1
SHEET 1 2032 680
WIRE -1168 -672 -1360 -672
WIRE -1360 -576 -1360 -672
WIRE -1232 -576 -1360 -576
WIRE -1360 -560 -1360 -576
WIRE -944 -496 -944 -528
WIRE -1232 -480 -1232 -576
WIRE -1360 -432 -1360 -480
WIRE -1296 -432 -1360 -432
WIRE -832 -432 -944 -432
WIRE -832 -416 -832 -432
WIRE -1088 -384 -1232 -384
WIRE -944 -304 -944 -336
WIRE -880 -304 -944 -304
WIRE -832 -304 -832 -352
WIRE -832 -304 -880 -304
WIRE 144 -176 96 -176
WIRE 544 -160 496 -160
WIRE -352 -144 -1264 -144
WIRE -288 -144 -288 -240
WIRE -192 -144 -288 -144
WIRE 144 -144 96 -144
WIRE 544 -128 496 -128
WIRE 144 -112 96 -112
WIRE 544 -96 496 -96
WIRE -192 -48 -672 -48
WIRE -128 -48 -128 -144
WIRE -1264 0 -1264 -144
WIRE -1264 0 -1344 0
WIRE -1152 0 -1264 0
WIRE -848 0 -1040 0
WIRE -1344 32 -1344 0
WIRE -1152 48 -1152 0
WIRE -1152 48 -1184 48
WIRE -1136 48 -1152 48
WIRE -128 48 -128 -48
WIRE -848 64 -848 0
WIRE -848 64 -944 64
WIRE -768 64 -848 64
WIRE -1040 80 -1184 80
WIRE 752 80 720 80
WIRE -848 96 -944 96
WIRE -1152 112 -1184 112
WIRE -1136 112 -1152 112
WIRE 752 112 720 112
WIRE -816 128 -944 128
WIRE -768 128 -816 128
WIRE -368 128 -448 128
WIRE -288 128 -368 128
WIRE -208 128 -208 48
WIRE -192 128 -208 128
WIRE -176 128 -192 128
WIRE -128 128 -128 48
WIRE 496 128 448 128
WIRE 560 128 496 128
WIRE -128 144 -128 128
WIRE -64 144 -128 144
WIRE 160 144 112 144
WIRE 240 144 160 144
WIRE 752 144 720 144
WIRE -1344 160 -1344 112
WIRE -1152 160 -1152 112
WIRE -1152 160 -1344 160
WIRE 448 160 448 128
WIRE 448 160 432 160
WIRE -848 176 -848 96
WIRE -208 176 -208 128
WIRE -64 176 -208 176
WIRE 352 176 112 176
WIRE 400 176 352 176
WIRE 752 176 720 176
WIRE 448 192 432 192
WIRE -64 208 -96 208
WIRE 272 208 112 208
WIRE 448 208 448 192
WIRE 496 208 448 208
WIRE 752 208 720 208
WIRE -1344 224 -1344 160
WIRE -1200 224 -1280 224
WIRE -368 224 -368 208
WIRE -368 224 -448 224
WIRE -672 240 -672 -48
WIRE -672 240 -848 240
WIRE -64 240 -80 240
WIRE 128 240 112 240
WIRE 752 240 720 240
WIRE -368 272 -368 224
WIRE 752 272 720 272
WIRE 560 288 496 288
WIRE -80 304 -80 240
WIRE -80 304 -208 304
WIRE 0 304 -80 304
WIRE 112 304 64 304
WIRE 272 304 272 208
WIRE 752 304 720 304
WIRE -1344 320 -1344 224
WIRE -208 320 -208 304
WIRE -208 320 -1264 320
WIRE 352 352 352 304
WIRE 416 352 352 352
WIRE -96 368 -96 208
WIRE 192 368 -96 368
WIRE 272 368 272 304
WIRE 272 384 272 368
WIRE 288 384 272 384
WIRE 352 384 352 352
WIRE -1344 416 -1344 320
WIRE -1200 416 -1200 224
WIRE -1200 416 -1264 416
WIRE 192 416 192 368
WIRE -1344 576 -1344 416
FLAG 720 80 P1
FLAG 720 112 P2
FLAG 720 144 P3
FLAG 720 176 P4
FLAG 720 208 P5
FLAG 720 240 P6
FLAG 720 272 P7
FLAG 720 304 P8
FLAG 160 80 0
FLAG 128 240 0
FLAG 240 144 P2
FLAG 560 128 P3
FLAG 560 288 P5
FLAG 352 240 0
FLAG 416 352 P8
FLAG 192 480 0
FLAG 112 304 0
FLAG -448 128 P1
FLAG -448 224 P4
FLAG -368 272 0
FLAG -1200 480 0
FLAG -816 128 0
FLAG -368 -240 P6
FLAG -96 448 P7
FLAG -880 -304 0
FLAG -1168 -672 5V_p2
FLAG -1344 576 P2
FLAG -1360 -288 P6
SYMBOL cap 144 80 R0
SYMATTR InstName C1
SYMBOL res 480 112 R0
SYMATTR InstName R1
SYMATTR Value 132
SYMBOL res 480 192 R0
SYMATTR InstName R307
SYMBOL cap 336 176 R0
SYMATTR InstName C2
SYMBOL res 368 288 R90
WINDOW 0 0 56 VBottom 2
WINDOW 3 32 56 VTop 2
SYMATTR InstName R2
SYMATTR Value 300
SYMBOL diode 352 368 R90
WINDOW 0 0 32 VBottom 2
WINDOW 3 32 32 VTop 2
SYMATTR InstName D3
SYMBOL res 288 352 R90
WINDOW 0 0 56 VBottom 2
WINDOW 3 32 56 VTop 2
SYMATTR InstName R306
SYMBOL cap 176 416 R0
SYMATTR InstName C3
SYMBOL cap 64 288 R90
WINDOW 0 0 32 VBottom 2
WINDOW 3 32 32 VTop 2
SYMATTR InstName C4
SYMATTR Value 103J=10nF j=5%
SYMBOL res -112 32 R90
WINDOW 0 0 56 VBottom 2
WINDOW 3 32 56 VTop 2
SYMATTR InstName R4
SYMATTR Value 103
SYMBOL cap -128 112 R90
WINDOW 0 0 32 VBottom 2
WINDOW 3 32 32 VTop 2
SYMATTR InstName C5
SYMBOL res -192 112 R90
WINDOW 0 0 56 VBottom 2
WINDOW 3 32 56 VTop 2
SYMATTR InstName R304
SYMBOL res -384 112 R0
SYMATTR InstName R5
SYMATTR Value 331
SYMBOL diode -128 -64 R90
WINDOW 0 0 32 VBottom 2
WINDOW 3 32 32 VTop 2
SYMATTR InstName D1
SYMBOL diode -128 -160 R90
WINDOW 0 0 32 VBottom 2
WINDOW 3 32 32 VTop 2
SYMATTR InstName D2
SYMBOL npn 208 -192 R0
WINDOW 0 87 13 Left 2
WINDOW 3 91 41 Left 2
WINDOW 123 91 64 Left 2
SYMATTR InstName Q4
SYMATTR Value2 C1815
SYMBOL pnp 608 -80 M180
WINDOW 123 84 4 Left 2
SYMATTR InstName Q3
SYMATTR Value2 A1015
SYMBOL res -1056 -16 R0
SYMATTR InstName R8
SYMATTR Value 102
SYMBOL cap -784 64 R0
SYMATTR InstName C7
SYMATTR Value 10µ
SYMBOL res -1360 16 R0
SYMATTR InstName R9
SYMATTR Value 104
SYMBOL diode -1280 208 R90
WINDOW 0 0 32 VBottom 2
WINDOW 3 32 32 VTop 2
SYMATTR InstName D5
SYMBOL res -1248 304 R90
WINDOW 0 0 56 VBottom 2
WINDOW 3 32 -30 VTop 2
SYMATTR InstName R302
SYMATTR Value 1.15k  = MMVMM
SYMBOL res -1248 400 R90
WINDOW 0 0 56 VBottom 2
WINDOW 3 32 56 VTop 2
SYMATTR InstName R301
SYMBOL cap -1216 416 R0
SYMATTR InstName C8
SYMATTR Value 4.7µ
SYMBOL diode -832 240 R180
WINDOW 0 24 64 Left 2
WINDOW 3 24 0 Left 2
SYMATTR InstName D4
SYMBOL res -272 -256 R90
WINDOW 0 0 56 VBottom 2
WINDOW 3 32 56 VTop 2
SYMATTR InstName R3
SYMATTR Value 94C
SYMBOL diode -352 -128 R270
WINDOW 0 32 32 VTop 2
WINDOW 3 0 32 VBottom 2
SYMATTR InstName D6
SYMBOL res -112 352 R0
SYMATTR InstName R6
SYMATTR Value 471
SYMBOL pnp -1296 -384 M180
WINDOW 123 84 4 Left 2
SYMATTR InstName Q1
SYMATTR Value2 A1015
SYMBOL npn -1008 -432 R0
WINDOW 0 87 13 Left 2
WINDOW 3 91 41 Left 2
WINDOW 123 91 64 Left 2
SYMATTR InstName Q2
SYMATTR Value2 C1815
SYMBOL res -992 -400 R90
WINDOW 0 0 56 VBottom 2
WINDOW 3 32 56 VTop 2
SYMATTR InstName R7
SYMATTR Value 102
SYMBOL cap -848 -416 R0
SYMATTR InstName C6
SYMATTR Value 10µ
SYMBOL diode -960 -496 R0
SYMATTR InstName D7
SYMBOL res -1376 -576 R0
SYMATTR InstName R10
SYMBOL diode -1376 -432 R0
SYMATTR InstName D8
SYMBOL res -1376 -384 R0
SYMATTR InstName R11
TEXT -56 144 Left 2 ;1:comp
TEXT -56 176 Left 2 ;2:VFB
TEXT -56 208 Left 2 ;3:ISEN
TEXT -56 240 Left 2 ;4:RT
TEXT 104 144 Right 2 ;Vref:8
TEXT 104 176 Right 2 ;Vcc:7
TEXT 104 208 Right 2 ;out:6
TEXT 104 240 Right 2 ;gnd:5
TEXT -32 112 Left 2 ;UC3843B
TEXT 712 40 Left 2 ;Connector
TEXT 144 -208 Left 2 ;B
TEXT 136 -88 Left 2 ;E
TEXT 160 -144 Left 2 ;C
TEXT 288 -72 Left 2 ;E
TEXT 544 -192 Left 2 ;B
TEXT 536 -72 Left 2 ;E
TEXT 560 -128 Left 2 ;C
TEXT 696 -184 Left 2 ;E
TEXT -896 32 Left 2 ;B
TEXT -904 152 Left 2 ;E
TEXT -880 96 Left 2 ;C
TEXT -1136 16 Left 2 ;B
TEXT -1144 136 Left 2 ;E
TEXT -1120 80 Left 2 ;C
TEXT -1208 -32 Left 2 ;A1015 NPN
TEXT -960 -32 Left 2 ;C1815 PNP
TEXT -784 112 Left 2 ;-
TEXT -1304 600 Left 2 ;P2 = Vref = 5V
TEXT -944 -536 Left 2 ;COMP
LINE Normal 112 -96 112 -192
LINE Normal 512 -80 512 -176
LINE Normal -928 144 -928 48
LINE Normal -1168 128 -1168 32
LINE Normal -1136 -80 -1088 -240 2
LINE Normal -1136 -80 -1136 -80 2
RECTANGLE Normal 112 256 -64 80
RECTANGLE Normal 784 320 752 64
RECTANGLE Normal 400 144 432 208
RECTANGLE Normal -752 -240 -1456 -752 2
RECTANGLE Normal -720 256 -1424 -80 2
ARC Normal 144 -192 64 -96 104 -191 109 -104
ARC Normal 544 -176 464 -80 504 -175 509 -88
ARC Normal -896 48 -976 144 -936 49 -931 136
ARC Normal -1136 32 -1216 128 -1176 33 -1171 120
