* C:\Users\a037702\NotSynchronized\Personnel\GIT\Design_of_1200W_LLC_DCDC\03_hw_design\01_design_justification\01_llc_tank\02_simulation\02_Test_Lm_Lr_Cr\Ac_sim.asc
C1 N002 N001 {Cr}
L1 Mg N002 {Lr}
L2 0 Mg {Lm}
R1 Mg 0 {0.55*Re_nom/Qe}
V1 N001 0 AC 1
.include params.txt
.ac dec 100 {fsw_min} {fsw_max}
.step param Qe list  0.1 0.2 0.3 0.4 0.5 0.55
.backanno
.end
