Version 4
SHEET 1 880 680
WIRE 96 128 -16 128
WIRE 192 128 160 128
WIRE 352 128 272 128
WIRE 448 128 352 128
WIRE 352 144 352 128
WIRE 448 144 448 128
WIRE -16 160 -16 128
WIRE -16 272 -16 240
WIRE 288 272 -16 272
WIRE 352 272 352 224
WIRE 352 272 288 272
WIRE 448 272 448 224
WIRE 448 272 352 272
FLAG 288 272 0
SYMBOL cap 160 112 R90
WINDOW 0 0 32 VBottom 2
WINDOW 3 32 32 VTop 2
SYMATTR InstName C1
SYMATTR Value {Cr}
SYMBOL ind 288 112 R90
WINDOW 0 5 56 VBottom 2
WINDOW 3 32 56 VTop 2
SYMATTR InstName L1
SYMATTR Value {Lr}
SYMBOL ind 368 240 R180
WINDOW 0 36 80 Left 2
WINDOW 3 36 40 Left 2
SYMATTR InstName L2
SYMATTR Value {Lm}
SYMBOL res 432 128 R0
SYMATTR InstName R1
SYMATTR Value {x*Re_110}
SYMBOL voltage -16 144 R0
WINDOW 123 29 95 Left 2
WINDOW 39 0 0 Left 2
SYMATTR InstName V1
SYMATTR Value ""
SYMATTR Value2 AC 1
TEXT -16 72 Left 2 !.include params.txt
TEXT -2 304 Left 2 !.ac dec 100 {fsw_min} {fsw_max}
TEXT -16 344 Left 2 !.step param x list 0.1 0.2 0.4 0.6 0.8 1
