Version 4.1
SHEET 1 1256 712
WIRE 496 48 320 48
WIRE -160 64 -192 64
WIRE -64 64 -160 64
WIRE 64 64 0 64
WIRE 192 64 144 64
WIRE 320 64 320 48
WIRE -192 112 -192 64
WIRE 192 128 192 64
WIRE 320 160 320 144
WIRE 560 160 320 160
WIRE 656 160 560 160
WIRE 672 160 656 160
WIRE 320 192 320 160
WIRE 672 192 672 160
WIRE -192 208 -192 192
WIRE 16 208 -192 208
WIRE 192 208 16 208
WIRE 560 224 560 160
WIRE 320 288 320 272
WIRE 496 288 496 48
WIRE 320 384 320 352
WIRE 448 384 320 384
WIRE 496 384 496 352
WIRE 496 384 448 384
WIRE 560 384 560 288
WIRE 560 384 496 384
WIRE 672 384 672 272
WIRE 672 384 560 384
FLAG 16 208 0
FLAG 448 384 0
FLAG -160 64 Vm
FLAG 656 160 Vout
SYMBOL ind 176 112 R0
WINDOW 0 -35 26 Left 2
WINDOW 3 -64 55 Left 2
SYMATTR InstName Lm
SYMATTR Value {Lm}
SYMATTR Type ind
SYMBOL ind 304 48 R0
SYMATTR InstName Ls1
SYMATTR Value {Ls}
SYMATTR Type ind
SYMBOL cap 0 48 R90
WINDOW 0 0 32 VBottom 2
WINDOW 3 32 32 VTop 2
SYMATTR InstName Cr
SYMATTR Value {Cr}
SYMBOL ind 48 80 R270
WINDOW 0 32 56 VTop 2
WINDOW 3 5 56 VBottom 2
SYMATTR InstName Lr
SYMATTR Value {Lr}
SYMBOL res 656 176 R0
SYMATTR InstName Rload
SYMATTR Value {Rload}
SYMBOL voltage -192 96 R0
WINDOW 0 46 53 Left 2
WINDOW 3 -180 153 Left 2
WINDOW 123 0 0 Left 0
WINDOW 39 0 0 Left 0
SYMATTR InstName Vm
SYMATTR Value PULSE({Vdc} 0 0 100n 100n {0.5/Freq} {1/Freq})
SYMBOL ind 304 176 R0
SYMATTR InstName Ls2
SYMATTR Value {Ls}
SYMATTR Type ind
SYMBOL diode 512 352 R180
WINDOW 0 24 64 Left 2
WINDOW 3 24 0 Left 2
SYMATTR InstName D1
SYMBOL diode 336 352 R180
WINDOW 0 24 64 Left 2
WINDOW 3 24 0 Left 2
SYMATTR InstName D2
SYMBOL cap 544 224 R0
SYMATTR InstName Co
SYMATTR Value {Co}
TEXT 152 8 Left 2 !k Lm Ls1 Ls2 1
TEXT -120 672 Left 2 !.ic i(Lr) = 0 i(Lm) = 0  i(Ls1) = 0 i(Ls2) = 0
TEXT -496 696 Left 2 !.tran {tsim}
TEXT -504 152 Left 2 !.include params.txt
LINE Normal 240 208 240 112 2
LINE Normal 272 208 272 112 2
