Version 4.1
SHEET 1 1436 1076
WIRE 112 -32 112 -48
WIRE 656 -32 624 -32
WIRE 736 -32 720 -32
WIRE 800 -32 736 -32
WIRE 848 -32 800 -32
WIRE 400 -16 400 -96
WIRE 624 -16 624 -32
WIRE 624 96 624 64
WIRE 736 96 736 32
WIRE 848 112 848 48
WIRE 0 160 -16 160
WIRE 336 160 320 160
WIRE 0 176 0 160
WIRE 64 176 0 176
WIRE 160 176 128 176
WIRE 64 208 -16 208
WIRE 400 224 400 64
WIRE 160 240 160 176
WIRE 192 240 160 240
WIRE 320 240 320 160
WIRE 320 240 288 240
WIRE 352 240 320 240
WIRE 112 288 32 288
WIRE 192 288 176 288
WIRE 112 320 80 320
WIRE -160 352 -224 352
WIRE -176 496 -224 496
WIRE 800 512 800 480
WIRE 560 544 560 464
WIRE -192 624 -224 624
WIRE 800 624 800 576
WIRE 864 624 800 624
WIRE 560 656 560 624
WIRE 672 656 560 656
WIRE 800 656 800 624
WIRE 800 656 784 656
WIRE 864 656 864 624
WIRE 800 720 784 720
WIRE -160 752 -224 752
WIRE 800 784 800 720
WIRE 864 784 864 736
WIRE 864 784 800 784
WIRE 672 848 672 720
WIRE 800 848 800 784
WIRE 400 1024 400 384
FLAG -224 704 0
FLAG 400 1024 0
FLAG -224 432 0
FLAG 112 -32 0
FLAG 624 96 0
FLAG 736 96 0
FLAG 848 112 0
FLAG 800 -32 vo
FLAG 352 288 0
FLAG 400 -96 Vin
FLAG 112 -128 Vin
FLAG -192 624 Set_cycle
FLAG 32 288 I_Lim
FLAG 336 160 Mos_cmd
FLAG -224 576 0
FLAG 80 320 MAX_DCY
FLAG -160 352 I_Lim
FLAG -176 496 MAX_DCY
FLAG -16 208 Set_cycle
FLAG 560 656 feedback
FLAG 800 400 vo
FLAG 800 848 0
FLAG -224 832 0
FLAG -160 752 feedbackOFF
FLAG -16 160 feedbackOFF
FLAG 672 848 0
FLAG 560 384 0
SYMBOL voltage -224 608 R0
WINDOW 0 41 76 Left 2
WINDOW 3 44 51 Left 2
WINDOW 123 0 0 Left 0
WINDOW 39 0 0 Left 0
SYMATTR InstName V_master_Freq
SYMATTR Value PULSE(0 1.2 0 10n 10n 100n 7.55u)
SYMBOL ind 384 -32 R0
SYMATTR InstName Lp
SYMATTR Value 1000µ
SYMATTR Type ind
SYMBOL Digital\\srflop 240 192 R0
WINDOW 39 -40 56 Left 2
SYMATTR InstName A2
SYMBOL res 384 288 R0
SYMATTR InstName R1
SYMATTR Value 28
SYMBOL bv -224 336 R0
WINDOW 0 42 95 Left 2
WINDOW 3 39 60 Left 2
SYMATTR InstName B_Current_Lim
SYMATTR Value V=if(i(R1)>250m,1.2,0)
SYMBOL sw 400 320 M180
SYMATTR InstName S1
SYMATTR Value MYSW
SYMBOL voltage 112 -144 R0
WINDOW 123 0 0 Left 0
WINDOW 39 0 0 Left 0
SYMATTR InstName V3
SYMATTR Value 300
SYMBOL ind 640 80 R180
WINDOW 0 36 80 Left 2
WINDOW 3 36 40 Left 2
SYMATTR InstName Ls
SYMATTR Value 20µ
SYMATTR Type ind
SYMBOL diode 656 -16 R270
WINDOW 0 32 32 VTop 2
WINDOW 3 0 32 VBottom 2
SYMATTR InstName D1
SYMBOL cap 720 -32 R0
SYMATTR InstName Cout
SYMATTR Value 5µ
SYMBOL res 832 -48 R0
SYMATTR InstName R2
SYMATTR Value 100
SYMBOL Digital\\or 144 240 R0
WINDOW 0 -19 21 Left 2
SYMATTR InstName A1
SYMBOL voltage -224 480 R0
WINDOW 0 41 86 Left 2
WINDOW 3 43 52 Left 2
WINDOW 123 0 0 Left 0
WINDOW 39 0 0 Left 0
SYMATTR InstName V_max_duty_cycle
SYMATTR Value PULSE(0 1.2 {7.55u*0.65} 10n 10n 100n 7.55u)
SYMBOL Digital\\and 96 128 R0
SYMATTR InstName A3
SYMBOL Contrib\\Wurth\\Optoelectronics\\Optocoupler\\WL-OCPT\\WL-OCPT_Series_817 736 688 M0
SYMATTR InstName Q1
SYMBOL voltage 560 480 R180
WINDOW 0 24 96 Left 2
WINDOW 3 24 16 Left 2
SYMATTR InstName V1
SYMATTR Value 1
SYMBOL zener 816 576 R180
WINDOW 0 24 64 Left 2
WINDOW 3 24 0 Left 2
SYMATTR InstName D2
SYMATTR Value TDZV11
SYMBOL res 848 640 R0
SYMATTR InstName R4
SYMATTR Value 1k
SYMBOL res 784 384 R0
SYMATTR InstName R5
SYMATTR Value 220
SYMBOL bv -224 736 R0
WINDOW 0 42 95 Left 2
WINDOW 3 39 60 Left 2
SYMATTR InstName B_Current_Lim1
SYMATTR Value V=if(v(feedback)<500m,0,1.2)
SYMBOL res 544 528 R0
SYMATTR InstName R6
SYMATTR Value 1k
TEXT -40 -32 Left 2 !.tran 50u
TEXT -248 880 Left 2 !.model MYSW SW(Ron =1m Roff=1meg Vt=0.5 Vh=0.1)
TEXT 472 -80 Left 2 !k Lp Ls 1
TEXT 728 168 Left 2 !.IC V(vo)= 12
TEXT -328 -136 Left 2 ;TNY-264-Simplified-Model-1
RECTANGLE Normal 624 992 -336 80 2
