Version 4.1
SHEET 1 1084 740
WIRE 112 -32 112 -48
WIRE 656 -32 624 -32
WIRE 736 -32 720 -32
WIRE 800 -32 736 -32
WIRE 848 -32 800 -32
WIRE 400 -16 400 -96
WIRE 624 -16 624 -32
WIRE 624 96 624 64
WIRE 736 96 736 32
WIRE 848 112 848 48
WIRE 336 160 320 160
WIRE -48 176 -256 176
WIRE -16 176 -48 176
WIRE -48 224 -48 176
WIRE 192 224 -48 224
WIRE 400 224 400 64
WIRE 192 240 192 224
WIRE 320 240 320 160
WIRE 320 240 288 240
WIRE 352 240 320 240
WIRE 112 288 -48 288
WIRE 192 288 176 288
WIRE 112 304 64 304
WIRE -48 320 -48 288
WIRE -48 320 -256 320
WIRE 0 320 -48 320
WIRE -256 336 -256 320
WIRE 64 432 64 304
WIRE 128 432 64 432
WIRE 64 480 64 432
WIRE 64 480 -240 480
WIRE 400 720 400 384
FLAG -256 256 0
FLAG 400 720 0
FLAG -256 416 0
FLAG 112 -32 0
FLAG 624 96 0
FLAG 736 96 0
FLAG 848 112 0
FLAG 800 -32 vo
FLAG 352 288 0
FLAG 400 -96 Vin
FLAG 112 -128 Vin
FLAG -16 176 Set_cycle
FLAG 0 320 I_Lim
FLAG 336 160 Mos_cmd
FLAG -240 560 0
FLAG 128 432 MAX_DCY
SYMBOL voltage -256 160 R0
WINDOW 0 41 76 Left 2
WINDOW 3 -7 -9 Left 2
WINDOW 123 0 0 Left 0
WINDOW 39 0 0 Left 0
SYMATTR InstName V_master_Freq
SYMATTR Value PULSE(0 1.2 0 10n 10n 100n 7.55u)
SYMBOL ind 384 -32 R0
SYMATTR InstName Lp
SYMATTR Value 1000”
SYMATTR Type ind
SYMBOL Digital\\srflop 240 192 R0
WINDOW 39 -40 56 Left 2
SYMATTR InstName A2
SYMBOL res 384 288 R0
SYMATTR InstName R1
SYMATTR Value 28
SYMBOL bv -256 320 R0
WINDOW 0 42 85 Left 2
WINDOW 3 39 60 Left 2
SYMATTR InstName B_Current_Lim
SYMATTR Value V=if(i(R1)>250m,1.2,0)
SYMBOL sw 400 320 M180
SYMATTR InstName S1
SYMATTR Value MYSW
SYMBOL voltage 112 -144 R0
WINDOW 123 0 0 Left 0
WINDOW 39 0 0 Left 0
SYMATTR InstName V3
SYMATTR Value 30
SYMBOL ind 640 80 R180
WINDOW 0 36 80 Left 2
WINDOW 3 36 40 Left 2
SYMATTR InstName Ls
SYMATTR Value 20”
SYMATTR Type ind
SYMBOL diode 656 -16 R270
WINDOW 0 32 32 VTop 2
WINDOW 3 0 32 VBottom 2
SYMATTR InstName D1
SYMBOL cap 720 -32 R0
SYMATTR InstName Cout
SYMATTR Value 5”
SYMBOL res 832 -48 R0
SYMATTR InstName R2
SYMATTR Value 100
SYMBOL Digital\\or 144 240 R0
SYMATTR InstName A1
SYMBOL voltage -240 464 R0
WINDOW 0 41 76 Left 2
WINDOW 3 45 36 Left 2
WINDOW 123 0 0 Left 0
WINDOW 39 0 0 Left 0
SYMATTR InstName V_max_duty_cycle
SYMATTR Value PULSE(0 1.2 {7.55u*0.65} 10n 10n 100n 7.55u)
TEXT -40 -32 Left 2 !.tran 20u
TEXT -312 608 Left 2 !.model MYSW SW(Ron =1m Roff=1meg Vt=0.5 Vh=0.1)
TEXT 472 -80 Left 2 !k Lp Ls 1
TEXT 728 168 Left 2 !.IC V(vo)= 12
TEXT -304 96 Left 2 ;TNY-264-Simplified-Model-1
RECTANGLE Normal 528 688 -336 128 2
