Version 4.1
SHEET 1 880 680
WIRE 400 -80 272 -80
WIRE 160 32 160 -16
WIRE 160 32 -160 32
WIRE 272 32 272 -80
WIRE 272 32 160 32
WIRE 400 32 400 0
WIRE 544 32 400 32
WIRE 400 96 400 32
WIRE -160 112 -256 112
WIRE 96 112 -160 112
WIRE 160 112 160 32
WIRE 96 128 96 112
WIRE 128 128 96 128
WIRE 224 144 192 144
WIRE 256 144 224 144
WIRE 128 160 96 160
WIRE 96 192 96 160
WIRE 96 192 48 192
WIRE 96 208 96 192
WIRE 96 320 96 288
FLAG 160 -96 0
FLAG -160 192 0
FLAG 96 320 0
FLAG 160 176 0
FLAG -256 112 Ref
FLAG 48 192 Meas
FLAG 224 144 out
FLAG 400 192 0
FLAG 544 32 open_drain
SYMBOL voltage 160 0 R180
WINDOW 0 24 96 Left 2
WINDOW 3 24 16 Left 2
WINDOW 123 0 0 Left 0
WINDOW 39 24 68 Left 2
SYMATTR InstName Vcc
SYMATTR Value 3.3
SYMATTR SpiceLine Rser=100m
SYMBOL voltage 96 192 R0
WINDOW 123 0 0 Left 0
WINDOW 39 0 0 Left 0
SYMATTR InstName V3
SYMATTR Value PULSE(0 3 0 1m 1u 50m 100m)
SYMBOL res -176 16 R0
SYMATTR InstName R1
SYMATTR Value 1k
SYMBOL res -176 96 R0
SYMATTR InstName Ref
SYMATTR Value 1k
SYMBOL OpAmps\\UniversalOpAmp2 160 144 R0
SYMATTR InstName U2
SYMBOL res 352 128 R90
WINDOW 0 0 56 VBottom 2
WINDOW 3 32 56 VTop 2
SYMATTR InstName R2
SYMATTR Value 200
SYMBOL npn 336 96 R0
SYMATTR InstName Q1
SYMBOL res 384 -96 R0
SYMATTR InstName R3
SYMATTR Value 10k
TEXT -64 344 Left 2 !.tran 1.2m
