Version 4.1
SHEET 1 3428 1236
WIRE 2048 64 1600 64
WIRE 1600 128 1600 64
WIRE 1600 128 1504 128
WIRE 1744 128 1600 128
WIRE 384 160 272 160
WIRE 496 160 384 160
WIRE 736 160 496 160
WIRE 1040 224 896 224
WIRE 1184 224 1120 224
WIRE 1504 224 1504 208
WIRE 1504 224 1424 224
WIRE 1184 240 1184 224
WIRE 2048 256 2048 64
WIRE 2128 256 2048 256
WIRE 2224 256 2128 256
WIRE 1424 272 1424 224
WIRE 384 288 384 160
WIRE 272 304 272 160
WIRE 736 304 736 240
WIRE 896 304 896 224
WIRE 896 304 736 304
WIRE 1184 352 1184 320
WIRE 1184 352 1152 352
WIRE 1424 384 1424 352
WIRE 1744 384 1744 208
WIRE 1744 384 1424 384
WIRE 2048 384 2048 320
WIRE 2080 384 2048 384
WIRE 2128 384 2128 336
WIRE 2128 384 2080 384
WIRE 496 400 496 240
WIRE 896 400 496 400
WIRE 1504 416 1504 224
WIRE 1744 416 1744 384
WIRE 496 448 496 400
WIRE 736 448 736 304
WIRE 800 464 784 464
WIRE 1600 496 1504 496
WIRE 1744 496 1600 496
WIRE 896 512 896 400
WIRE 1152 512 1152 352
WIRE 1152 512 896 512
WIRE 272 528 272 384
WIRE 320 528 272 528
WIRE 384 528 384 352
WIRE 384 528 320 528
WIRE 496 528 384 528
WIRE 736 528 496 528
WIRE 1600 592 1600 496
WIRE 2048 592 2048 384
WIRE 2048 592 1600 592
FLAG 480 768 0
FLAG 480 688 c1
FLAG 608 912 0
FLAG 608 832 c2
FLAG 544 224 0
FLAG 784 224 0
FLAG 544 176 c1
FLAG 784 176 c2
FLAG 320 528 0
FLAG 2080 384 0
FLAG 2224 256 vout
FLAG 1552 480 0
FLAG 1552 192 0
FLAG 1792 192 0
FLAG 1792 480 0
FLAG 1552 144 c12
FLAG 1792 432 c12
FLAG 1552 432 c22
FLAG 1792 144 c22
FLAG 1616 784 0
FLAG 1616 704 c12
FLAG 1744 928 0
FLAG 1744 848 c22
FLAG 544 512 c1
FLAG 864 448 c2
FLAG 544 464 0
SYMBOL ind 1168 224 R0
SYMATTR InstName L1
SYMATTR Value {Lm}
SYMATTR Type ind
SYMBOL ind 1136 208 R90
WINDOW 0 5 56 VBottom 2
WINDOW 3 32 56 VTop 2
SYMATTR InstName LrR
SYMATTR Value {Lr}
SYMBOL ind 1440 368 R180
WINDOW 0 36 80 Left 2
WINDOW 3 36 40 Left 2
SYMATTR InstName L3
SYMATTR Value {L_sec}
SYMATTR Type ind
SYMBOL voltage 480 672 R0
WINDOW 123 0 0 Left 0
WINDOW 39 0 0 Left 0
SYMATTR InstName V2
SYMATTR Value PULSE(-1 1 0 10n 10n {t_on} {period})
SYMBOL voltage 608 816 R0
WINDOW 123 0 0 Left 0
WINDOW 39 0 0 Left 0
SYMATTR InstName V4
SYMATTR Value PULSE(0 5 {delay2} 10n 10n {t_on} {period})
SYMBOL sw 496 256 R180
SYMATTR InstName S1
SYMBOL sw 496 544 R180
SYMATTR InstName S2
SYMBOL sw 736 256 R180
SYMATTR InstName S3
SYMBOL sw 736 544 R180
SYMATTR InstName S4
SYMBOL voltage 272 288 R0
WINDOW 123 0 0 Left 0
WINDOW 39 24 44 Left 2
WINDOW 3 24 72 Left 2
SYMATTR SpiceLine Rser=1M
SYMATTR InstName V3
SYMATTR Value 400
SYMBOL cap 2032 256 R0
SYMATTR InstName C2
SYMATTR Value {Co}
SYMBOL res 2112 240 R0
SYMATTR InstName R1
SYMATTR Value 2
SYMBOL sw 1504 224 R180
SYMATTR InstName S5
SYMBOL sw 1504 512 R180
SYMATTR InstName S6
SYMBOL sw 1744 224 R180
SYMATTR InstName S7
SYMBOL sw 1744 512 R180
SYMATTR InstName S8
SYMBOL voltage 1616 688 R0
WINDOW 123 0 0 Left 0
WINDOW 39 0 0 Left 0
SYMATTR InstName V1
SYMATTR Value PULSE(0 5 0 10n 10n {t_on} {period})
SYMBOL voltage 1744 832 R0
WINDOW 123 0 0 Left 0
WINDOW 39 0 0 Left 0
SYMATTR InstName V5
SYMATTR Value PULSE(0 5 {period/2} 10n 10n {t_on} {period})
SYMBOL Digital\\buf 864 384 M0
SYMATTR InstName A2
TEXT 264 672 Left 2 !.tran 200U
TEXT 280 600 Left 2 !.param Cru=15n Lr=21.8u Lm=65.4u L_sec=4.087u ncapo=7 Co=20U Frr=98.4k
TEXT 1128 24 Left 2 !k L1 L3 0.95
TEXT 1144 -184 Left 2 !.param f_sw = 100k       ; Set your switching frequency (e.g., 100 kHz)\n.param dt = 200n         ; Set Dead-Time for Zero Voltage Switching (ZVS)\n.param period = 1/f_sw   ; Calculates total period\n.param t_on = (period/2) - dt ; Calculates ON time for 50% duty cycle
TEXT 1144 -32 Left 2 !.model MyDiode D(Ron=0.01 Roff=10Meg Vfwd=0.6 epsilon=0.05)
TEXT 392 8 Left 2 !.model SW SW(Ron = 10m Roff = 1Meg vt=0.0 vh = 0.001)
TEXT 408 80 Left 2 !.model MyDiode D(Ron=0.01 Roff=10Meg Vfwd=0.6 epsilon=0.05)
TEXT 2104 96 Left 2 !.ic v(vout)=67.5
TEXT 608 1008 Left 2 !.param DuC1=0.4\n.param DuC2 = 0.5\n.param Phase = 0\n.param delay2 = {DuC1*period}\n.param delay3 = {(DuC1+Phase/180)*period}\n.param delay4 = {(DuC1+Phase/180+DuC2)*period}
