Version 4.1
SHEET 1 1644 680
WIRE 272 -352 224 -352
WIRE 416 -352 352 -352
WIRE 848 -352 576 -352
WIRE 416 -272 224 -272
WIRE 864 -272 576 -272
FLAG 256 112 0
FLAG 256 32 hvpP
FLAG 352 48 0
FLAG 352 -32 hvpN
FLAG 640 0 0
FLAG 640 -80 hvnP
FLAG 736 -64 0
FLAG 736 -144 hvnN
FLAG 224 -352 hvpP
FLAG 224 -272 hvpN
FLAG 848 -352 hvnP
FLAG 864 -272 hvnN
SYMBOL voltage 256 16 R0
WINDOW 123 0 0 Left 0
WINDOW 39 0 0 Left 0
SYMATTR InstName V1
SYMATTR Value PULSE({-Vin/2} {Vin/2} 0 {Tr} {Tf} {T/2-Tr-Tf} {T})
SYMBOL voltage 352 -48 R0
WINDOW 123 0 0 Left 0
WINDOW 39 0 0 Left 0
SYMATTR InstName V2
SYMATTR Value PULSE({-Vin/2} {Vin/2} {T*dc1/2} {Tr} {Tf} {T/2-Tr-Tf} {T})
SYMBOL voltage 640 -96 R0
WINDOW 123 0 0 Left 0
WINDOW 39 0 0 Left 0
SYMATTR InstName V3
SYMATTR Value PULSE({-Vout/2} {Vout/2} {phases} {Tr} {Tf} {T/2-Tr-Tf} {T})
SYMBOL voltage 736 -160 R0
WINDOW 123 0 0 Left 0
WINDOW 39 0 0 Left 0
SYMATTR InstName V4
SYMATTR Value PULSE({-Vout/2} {Vout/2} {phases+T*dc2/2} {Tr} {Tf} {T/2-Tr-Tf} {T})
SYMBOL ind 400 -368 R0
SYMATTR InstName L1
SYMATTR Value {Lmp}
SYMATTR Type ind
SYMATTR SpiceLine Rser=1m
SYMBOL ind 560 -368 R0
SYMATTR InstName L2
SYMATTR Value {Lms}
SYMATTR Type ind
SYMATTR SpiceLine Rser=1m
SYMBOL ind 256 -336 R270
WINDOW 0 32 56 VTop 2
WINDOW 3 5 56 VBottom 2
SYMATTR InstName L3
SYMATTR Value {L1}
SYMATTR SpiceLine Rser=1m
SYMBOL cap 336 -224 R90
WINDOW 0 0 32 VBottom 2
WINDOW 3 32 32 VTop 2
SYMATTR InstName C1
SYMATTR Value 10
TEXT 104 -96 Left 2 !.tran 20u
TEXT 104 -520 Left 2 !.param vin=400 vout=300 T=10u Tr=10n Tf=10n
TEXT 104 -560 Left 2 !.param dc1=1 dc2=1 phased=50 phases={phased*T/360}
TEXT 104 -592 Left 2 !.param Lmp=60u Lms=60u L1=20u
TEXT 448 -408 Left 2 !k L1 L2 1
TEXT 352 216 Left 2 !.ic i(L3)=-92.6/2
