Version 4.1
SHEET 1 3428 1344
WIRE 1664 48 1504 48
WIRE 1808 48 1664 48
WIRE 1504 80 1504 48
WIRE 1664 80 1664 48
WIRE 496 160 272 160
WIRE 736 160 496 160
WIRE 1040 224 896 224
WIRE 1184 224 1120 224
WIRE 1504 224 1504 144
WIRE 1504 224 1424 224
WIRE 1184 240 1184 224
WIRE 1808 240 1808 48
WIRE 1888 240 1808 240
WIRE 1984 240 1888 240
WIRE 1424 272 1424 224
WIRE 272 304 272 160
WIRE 736 304 736 240
WIRE 896 304 896 224
WIRE 896 304 736 304
WIRE 1184 368 1184 320
WIRE 1808 368 1808 304
WIRE 1840 368 1808 368
WIRE 1888 368 1888 320
WIRE 1888 368 1840 368
WIRE 496 400 496 240
WIRE 896 400 496 400
WIRE 1424 416 1424 352
WIRE 1664 416 1664 144
WIRE 1664 416 1424 416
WIRE 496 448 496 400
WIRE 736 448 736 304
WIRE 896 512 896 400
WIRE 1184 512 1184 432
WIRE 1184 512 896 512
WIRE 1504 512 1504 224
WIRE 1664 512 1664 416
WIRE 272 528 272 384
WIRE 320 528 272 528
WIRE 496 528 320 528
WIRE 736 528 496 528
WIRE 1664 576 1504 576
WIRE 1808 576 1808 368
WIRE 1808 576 1664 576
WIRE 1632 800 1472 800
WIRE 1776 800 1632 800
WIRE 1472 832 1472 800
WIRE 1632 832 1632 800
WIRE 464 912 240 912
WIRE 704 912 464 912
WIRE 1472 912 1472 896
WIRE 1632 912 1632 896
WIRE 1008 976 864 976
WIRE 1152 976 1088 976
WIRE 1472 976 1472 912
WIRE 1472 976 1392 976
WIRE 1152 992 1152 976
WIRE 1776 992 1776 800
WIRE 1856 992 1776 992
WIRE 1952 992 1856 992
WIRE 1392 1024 1392 976
WIRE 240 1056 240 912
WIRE 704 1056 704 992
WIRE 864 1056 864 976
WIRE 864 1056 704 1056
WIRE 1152 1120 1152 1072
WIRE 1776 1120 1776 1056
WIRE 1808 1120 1776 1120
WIRE 1856 1120 1856 1072
WIRE 1856 1120 1808 1120
WIRE 464 1152 464 992
WIRE 864 1152 464 1152
WIRE 1392 1168 1392 1104
WIRE 1632 1168 1632 912
WIRE 1632 1168 1392 1168
WIRE 464 1200 464 1152
WIRE 704 1200 704 1056
WIRE 864 1264 864 1152
WIRE 1152 1264 1152 1184
WIRE 1152 1264 864 1264
WIRE 1472 1264 1472 976
WIRE 1632 1264 1632 1168
WIRE 240 1280 240 1136
WIRE 288 1280 240 1280
WIRE 464 1280 288 1280
WIRE 704 1280 464 1280
WIRE 1632 1328 1472 1328
WIRE 1776 1328 1776 1120
WIRE 1776 1328 1632 1328
FLAG 400 -112 0
FLAG 400 -192 c1
FLAG 224 -48 0
FLAG 224 -128 c2
FLAG 544 512 0
FLAG 544 224 0
FLAG 784 224 0
FLAG 784 512 0
FLAG 544 176 c1
FLAG 784 464 c1
FLAG 544 464 c2
FLAG 784 176 c2
FLAG 320 528 0
FLAG 1840 368 0
FLAG 1984 240 vout
FLAG 512 1264 0
FLAG 512 976 0
FLAG 752 976 0
FLAG 752 1264 0
FLAG 512 928 c1
FLAG 512 1216 c2
FLAG 752 928 c2
FLAG 288 1280 0
FLAG 1808 1120 0
FLAG 1952 992 vout2
FLAG 752 1216 c1
SYMBOL ind 1168 224 R0
SYMATTR InstName L1
SYMATTR Value {Lm}
SYMATTR Type ind
SYMBOL ind 1136 208 R90
WINDOW 0 5 56 VBottom 2
WINDOW 3 32 56 VTop 2
SYMATTR InstName LrR
SYMATTR Value {Lr}
SYMBOL cap 1168 368 R0
SYMATTR InstName C8
SYMATTR Value {8*Cru}
SYMBOL ind 1440 368 R180
WINDOW 0 36 80 Left 2
WINDOW 3 36 40 Left 2
SYMATTR InstName L3
SYMATTR Value {L_sec}
SYMATTR Type ind
SYMBOL diode 1520 576 R180
WINDOW 0 24 64 Left 2
WINDOW 3 24 0 Left 2
SYMATTR InstName D1
SYMATTR Value MyDiode
SYMBOL diode 1680 576 R180
WINDOW 0 24 64 Left 2
WINDOW 3 24 0 Left 2
SYMATTR InstName D2
SYMATTR Value MyDiode
SYMBOL voltage 400 -208 R0
WINDOW 123 0 0 Left 0
WINDOW 39 0 0 Left 0
SYMATTR InstName V2
SYMATTR Value PULSE(0 5 0 10n 10n {t_on} {period})
SYMBOL voltage 224 -144 R0
WINDOW 123 0 0 Left 0
WINDOW 39 0 0 Left 0
SYMATTR InstName V4
SYMATTR Value PULSE(0 5 {period/2} 10n 10n {t_on} {period})
SYMBOL sw 496 256 R180
SYMATTR InstName S1
SYMBOL sw 496 544 R180
SYMATTR InstName S2
SYMBOL sw 736 256 R180
SYMATTR InstName S3
SYMBOL sw 736 544 R180
SYMATTR InstName S4
SYMBOL voltage 272 288 R0
WINDOW 123 0 0 Left 0
WINDOW 39 24 44 Left 2
WINDOW 3 24 72 Left 2
SYMATTR SpiceLine Rser=1m
SYMATTR InstName V3
SYMATTR Value 400
SYMBOL cap 1792 240 R0
SYMATTR InstName C2
SYMATTR Value {Co}
SYMBOL res 1872 224 R0
SYMATTR InstName R1
SYMATTR Value 10
SYMBOL diode 1520 144 R180
WINDOW 0 24 64 Left 2
WINDOW 3 24 0 Left 2
SYMATTR InstName D3
SYMATTR Value MyDiode
SYMBOL diode 1680 144 R180
WINDOW 0 24 64 Left 2
WINDOW 3 24 0 Left 2
SYMATTR InstName D4
SYMATTR Value MyDiode
SYMBOL ind 1136 976 R0
SYMATTR InstName L2
SYMATTR Value {Lm}
SYMATTR Type ind
SYMBOL ind 1104 960 R90
WINDOW 0 5 56 VBottom 2
WINDOW 3 32 56 VTop 2
SYMATTR InstName LrR1
SYMATTR Value {Lr}
SYMBOL cap 1136 1120 R0
SYMATTR InstName C1
SYMATTR Value {8*Cru}
SYMBOL ind 1408 1120 R180
WINDOW 0 36 80 Left 2
WINDOW 3 36 40 Left 2
SYMATTR InstName L4
SYMATTR Value {L_sec}
SYMATTR Type ind
SYMBOL diode 1488 1328 R180
WINDOW 0 24 64 Left 2
WINDOW 3 24 0 Left 2
SYMATTR InstName D5
SYMATTR Value MyDiode
SYMBOL diode 1648 1328 R180
WINDOW 0 24 64 Left 2
WINDOW 3 24 0 Left 2
SYMATTR InstName D6
SYMATTR Value MyDiode
SYMBOL sw 464 1008 R180
SYMATTR InstName S5
SYMBOL sw 464 1296 R180
SYMATTR InstName S6
SYMBOL sw 704 1008 R180
SYMATTR InstName S7
SYMBOL sw 704 1296 R180
SYMATTR InstName S8
SYMBOL voltage 240 1040 R0
WINDOW 123 0 0 Left 0
WINDOW 39 24 44 Left 2
WINDOW 3 24 72 Left 2
SYMATTR SpiceLine Rser=1m
SYMATTR InstName V1
SYMATTR Value 400
SYMBOL cap 1760 992 R0
SYMATTR InstName C3
SYMATTR Value {Co}
SYMBOL res 1840 976 R0
SYMATTR InstName R2
SYMATTR Value 10
SYMBOL ind 1456 816 R0
SYMATTR InstName L5
SYMATTR Value {2*L_sec}
SYMATTR SpiceLine Rser=1m
SYMBOL ind 1616 816 R0
SYMATTR InstName L6
SYMATTR Value {2*L_sec}
SYMATTR SpiceLine Rser=1m
TEXT 288 56 Left 2 !.tran 0 2m 1.9m
TEXT 1032 -208 Left 2 !.param Cru=15n Lr=21.8u Lm=65.4u L_sec=4.087u ncapo=7 Co=120u Frr=98.4k
TEXT 1128 24 Left 2 !k L1 L3 1
TEXT 1144 -184 Left 2 !.param f_sw = 100k       ; Set your switching frequency (e.g., 100 kHz)\n.param dt = 200n         ; Set Dead-Time for Zero Voltage Switching (ZVS)\n.param period = 1/f_sw   ; Calculates total period\n.param t_on = (period/2) - dt ; Calculates ON time for 50% duty cycle
TEXT 1144 -32 Left 2 !.model MyDiode D(Ron=0.01 Roff=10Meg Vfwd=0.6 epsilon=0.05)
TEXT 392 8 Left 2 !.model SW SW(Ron = 10m Roff = 1Meg vt=0.5 vh = 0.1)
TEXT 1864 80 Left 2 !.ic v(vout)=60
TEXT 1096 776 Left 2 !k2 L2 L4 1
TEXT 1832 832 Left 2 !.ic v(vout2)=60
