Version 4.1
SHEET 1 3428 1236
WIRE 1472 112 1312 112
WIRE 1312 128 1312 112
WIRE 416 160 272 160
WIRE 272 192 272 160
WIRE 592 192 272 192
WIRE 672 192 592 192
WIRE 672 208 672 192
WIRE 736 208 672 208
WIRE 1056 224 896 224
WIRE 1184 224 1056 224
WIRE 1184 240 1184 224
WIRE 1312 240 1312 208
WIRE 1344 240 1312 240
WIRE 1504 240 1424 240
WIRE 1536 240 1504 240
WIRE 1616 240 1536 240
WIRE 1312 272 1312 240
WIRE 544 288 544 272
WIRE 816 288 784 288
WIRE 272 304 272 192
WIRE 896 304 896 224
WIRE 896 304 736 304
WIRE 1536 304 1536 288
WIRE 816 352 816 288
WIRE 592 368 592 288
WIRE 592 368 544 368
WIRE 672 368 592 368
WIRE 1536 368 1536 304
WIRE 1568 368 1536 368
WIRE 1616 368 1616 320
WIRE 1616 368 1568 368
WIRE 592 384 592 368
WIRE 1312 400 1312 352
WIRE 1472 400 1472 112
WIRE 736 432 736 304
WIRE 816 432 736 432
WIRE 736 448 736 432
WIRE 896 512 896 400
WIRE 960 512 896 512
WIRE 1072 512 960 512
WIRE 1184 512 1184 320
WIRE 1184 512 1072 512
WIRE 272 528 272 384
WIRE 320 528 272 528
WIRE 592 528 592 480
WIRE 592 528 320 528
WIRE 736 528 592 528
WIRE 848 528 736 528
WIRE 672 608 672 368
WIRE 960 608 960 512
WIRE 960 608 672 608
FLAG 1312 464 0
FLAG 1472 464 0
FLAG -384 320 0
FLAG -384 240 c1
FLAG -384 480 0
FLAG -384 400 c2
FLAG 496 304 c1
FLAG 784 512 c1
FLAG 544 464 c2
FLAG 864 368 c2
FLAG 320 528 0
FLAG 1568 368 0
FLAG 1504 240 vout
FLAG 1056 224 ac_lm1
FLAG 1072 512 ac_lm2
FLAG 496 352 0
FLAG 864 416 0
SYMBOL ind 1168 224 R0
SYMATTR InstName L1
SYMATTR Value {Lm}
SYMATTR Type ind
SYMBOL ind 1296 112 R0
SYMATTR InstName L2
SYMATTR Value {L_sec}
SYMATTR Type ind
SYMBOL ind 1296 256 R0
SYMATTR InstName L3
SYMATTR Value {L_sec}
SYMATTR Type ind
SYMBOL diode 1328 464 R180
WINDOW 0 24 64 Left 2
WINDOW 3 24 0 Left 2
SYMATTR InstName D1
SYMATTR Value MyDiode
SYMBOL diode 1488 464 R180
WINDOW 0 24 64 Left 2
WINDOW 3 24 0 Left 2
SYMATTR InstName D2
SYMATTR Value MyDiode
SYMBOL voltage -384 224 R0
WINDOW 123 0 0 Left 0
WINDOW 39 0 0 Left 0
SYMATTR InstName V2
SYMATTR Value PULSE(0 12 0 10n 10n {t_on} {period})
SYMBOL voltage -384 384 R0
WINDOW 123 0 0 Left 0
WINDOW 39 0 0 Left 0
SYMATTR InstName V4
SYMATTR Value PULSE(0 12 {period/2} 10n 10n {t_on} {period})
SYMBOL voltage 272 288 R0
WINDOW 123 0 0 Left 0
WINDOW 39 24 124 Left 2
SYMATTR SpiceLine Rser=1m
SYMATTR InstName V3
SYMATTR Value 400
SYMBOL cap 1520 240 R0
SYMATTR InstName C2
SYMATTR Value {Co}
SYMBOL res 1600 224 R0
SYMATTR InstName R1
SYMATTR Value 10
SYMBOL ind 1440 224 R90
WINDOW 0 5 56 VBottom 2
WINDOW 3 32 56 VTop 2
SYMATTR InstName L5
SYMATTR Value 3µ
SYMATTR SpiceLine Rser=1m
SYMBOL nmos 544 384 R0
WINDOW 3 -82 203 Left 2
SYMATTR InstName M2
SYMATTR Value STP8NM60
SYMBOL nmos 784 432 M0
WINDOW 3 -42 148 Left 2
SYMATTR InstName M3
SYMATTR Value STP8NM60
SYMBOL nmos 544 192 R0
WINDOW 3 -109 435 Left 2
SYMATTR InstName M4
SYMATTR Value STP8NM60
SYMBOL e 544 272 R0
SYMATTR InstName E1
SYMATTR Value 1
SYMBOL nmos 784 208 M0
WINDOW 3 -109 435 Left 2
SYMATTR InstName M5
SYMATTR Value STP8NM60
SYMBOL e 816 336 M0
SYMATTR InstName E2
SYMATTR Value 1
TEXT -280 224 Left 2 !.tran 0 1200u 1100u
TEXT 1712 312 Left 2 !.param Cru=15n Lr=60u Lm=654u L_sec=40.87u ncapo=7 Co=10u
TEXT 1712 192 Left 2 !.param f_sw = 100k       ; Set your switching frequency (e.g., 100 kHz)\n.param dt = 200n         ; Set Dead-Time for Zero Voltage Switching (ZVS)\n.param period = 1/f_sw   ; Calculates total period\n.param t_on = (period/2) - dt ; Calculates ON time for 50% duty cycle
TEXT 1712 344 Left 2 !.model MyDiode D(Ron=0.01 Roff=10Meg Vfwd=0.6 epsilon=0.05)
TEXT 384 88 Left 2 !.model SW SW(Ron = 10m Roff = 1Meg vt=0.5 vh = 0.1)
TEXT 384 120 Left 2 !.model MyDiode D(Ron=0.01 Roff=10Meg Vfwd=0.6 epsilon=0.05)
TEXT 1720 400 Left 2 !.ic v(vout)=12
TEXT 1720 432 Left 2 !.param coss = 150p
TEXT 1168 128 Left 2 !k2 L1 L2 L3 0.99
