Version 4.1
SHEET 1 3428 1236
WIRE 1472 112 1312 112
WIRE 1312 128 1312 112
WIRE 416 160 272 160
WIRE 496 160 416 160
WIRE 592 160 496 160
WIRE 640 160 592 160
WIRE 736 160 640 160
WIRE 848 160 736 160
WIRE 848 192 848 160
WIRE 1056 224 896 224
WIRE 1184 224 1056 224
WIRE 1184 240 1184 224
WIRE 1312 240 1312 208
WIRE 1344 240 1312 240
WIRE 1504 240 1424 240
WIRE 1536 240 1504 240
WIRE 1616 240 1536 240
WIRE 1312 272 1312 240
WIRE 272 304 272 160
WIRE 416 304 416 224
WIRE 496 304 496 240
WIRE 496 304 416 304
WIRE 592 304 592 224
WIRE 592 304 496 304
WIRE 640 304 640 224
WIRE 736 304 736 240
WIRE 736 304 640 304
WIRE 848 304 848 256
WIRE 848 304 736 304
WIRE 896 304 896 224
WIRE 896 304 848 304
WIRE 1536 304 1536 288
WIRE 1536 368 1536 304
WIRE 1568 368 1536 368
WIRE 1616 368 1616 320
WIRE 1616 368 1568 368
WIRE 496 400 496 304
WIRE 496 400 416 400
WIRE 592 400 496 400
WIRE 896 400 592 400
WIRE 1312 400 1312 352
WIRE 1472 400 1472 112
WIRE 736 416 736 304
WIRE 736 416 656 416
WIRE 848 416 736 416
WIRE 496 448 496 400
WIRE 736 448 736 416
WIRE 848 448 848 416
WIRE 416 464 416 400
WIRE 592 464 592 400
WIRE 656 464 656 416
WIRE 896 512 896 400
WIRE 1072 512 896 512
WIRE 1184 512 1184 320
WIRE 1184 512 1072 512
WIRE 272 528 272 384
WIRE 320 528 272 528
WIRE 416 528 320 528
WIRE 496 528 416 528
WIRE 592 528 496 528
WIRE 656 528 592 528
WIRE 736 528 656 528
WIRE 848 528 848 512
WIRE 848 528 736 528
FLAG 1312 464 0
FLAG 1472 464 0
FLAG -384 320 0
FLAG -384 240 c1
FLAG -384 480 0
FLAG -384 400 c2
FLAG 544 512 0
FLAG 544 224 0
FLAG 784 224 0
FLAG 784 512 0
FLAG 544 176 c1
FLAG 784 464 c1
FLAG 544 464 c2
FLAG 784 176 c2
FLAG 320 528 0
FLAG 1568 368 0
FLAG 1504 240 vout
FLAG 1056 224 ac_lm1
FLAG 1072 512 ac_lm2
SYMBOL ind 1168 224 R0
SYMATTR InstName L1
SYMATTR Value {Lm}
SYMATTR Type ind
SYMBOL ind 1296 112 R0
SYMATTR InstName L2
SYMATTR Value {L_sec}
SYMATTR Type ind
SYMBOL ind 1296 256 R0
SYMATTR InstName L3
SYMATTR Value {L_sec}
SYMATTR Type ind
SYMBOL diode 1328 464 R180
WINDOW 0 24 64 Left 2
WINDOW 3 24 0 Left 2
SYMATTR InstName D1
SYMATTR Value MyDiode
SYMBOL diode 1488 464 R180
WINDOW 0 24 64 Left 2
WINDOW 3 24 0 Left 2
SYMATTR InstName D2
SYMATTR Value MyDiode
SYMBOL voltage -384 224 R0
WINDOW 123 0 0 Left 0
WINDOW 39 0 0 Left 0
SYMATTR InstName V2
SYMATTR Value PULSE(0 5 0 10n 10n {t_on} {period})
SYMBOL voltage -384 384 R0
WINDOW 123 0 0 Left 0
WINDOW 39 0 0 Left 0
SYMATTR InstName V4
SYMATTR Value PULSE(0 5 {period/2} 10n 10n {t_on} {period})
SYMBOL sw 496 256 R180
SYMATTR InstName S1
SYMBOL sw 496 544 R180
SYMATTR InstName S2
SYMBOL sw 736 256 R180
SYMATTR InstName S3
SYMBOL sw 736 544 R180
SYMATTR InstName S4
SYMBOL voltage 272 288 R0
WINDOW 123 0 0 Left 0
WINDOW 39 24 124 Left 2
SYMATTR SpiceLine Rser=1m
SYMATTR InstName V3
SYMATTR Value 400
SYMBOL cap 1520 240 R0
SYMATTR InstName C2
SYMATTR Value {Co}
SYMBOL res 1600 224 R0
SYMATTR InstName R1
SYMATTR Value 10
SYMBOL ind 1440 224 R90
WINDOW 0 5 56 VBottom 2
WINDOW 3 32 56 VTop 2
SYMATTR InstName L5
SYMATTR Value 3µ
SYMATTR SpiceLine Rser=1m
SYMBOL cap 576 160 R0
SYMATTR InstName C1
SYMATTR Value {coss}
SYMBOL cap 624 160 R0
SYMATTR InstName C3
SYMATTR Value {coss}
SYMBOL cap 576 464 R0
SYMATTR InstName C4
SYMATTR Value {coss}
SYMBOL cap 640 464 R0
SYMATTR InstName C5
SYMATTR Value {coss}
SYMBOL diode 432 224 R180
WINDOW 0 24 64 Left 2
WINDOW 3 24 0 Left 2
SYMATTR InstName D3
SYMBOL diode 432 528 R180
WINDOW 0 24 64 Left 2
WINDOW 3 24 0 Left 2
SYMATTR InstName D4
SYMBOL diode 864 512 R180
WINDOW 0 24 64 Left 2
WINDOW 3 24 0 Left 2
SYMATTR InstName D5
SYMBOL diode 864 256 R180
WINDOW 0 24 64 Left 2
WINDOW 3 24 0 Left 2
SYMATTR InstName D6
TEXT -280 224 Left 2 !.tran 0 1200u 1100u
TEXT 1712 312 Left 2 !.param Cru=15n Lr=60u Lm=654u L_sec=40.87u ncapo=7 Co=10u
TEXT 1712 192 Left 2 !.param f_sw = 100k       ; Set your switching frequency (e.g., 100 kHz)\n.param dt = 200n         ; Set Dead-Time for Zero Voltage Switching (ZVS)\n.param period = 1/f_sw   ; Calculates total period\n.param t_on = (period/2) - dt ; Calculates ON time for 50% duty cycle
TEXT 1712 344 Left 2 !.model MyDiode D(Ron=0.01 Roff=10Meg Vfwd=0.6 epsilon=0.05)
TEXT 384 88 Left 2 !.model SW SW(Ron = 10m Roff = 1Meg vt=0.5 vh = 0.1)
TEXT 384 120 Left 2 !.model MyDiode D(Ron=0.01 Roff=10Meg Vfwd=0.6 epsilon=0.05)
TEXT 1720 400 Left 2 !.ic v(vout)=12
TEXT 1720 432 Left 2 !.param coss = 150p
TEXT 1168 128 Left 2 !k2 L1 L2 L3 0.99
