Version 4.1
SHEET 1 1856 1076
WIRE -64 -384 -128 -384
WIRE -32 -384 -64 -384
WIRE 48 -384 -32 -384
WIRE 1120 -384 1024 -384
WIRE 1200 -384 1120 -384
WIRE -128 -368 -128 -384
WIRE 1024 -368 1024 -384
WIRE -128 -224 -128 -288
WIRE -32 -224 -32 -320
WIRE -32 -224 -128 -224
WIRE 48 -224 48 -304
WIRE 48 -224 -32 -224
WIRE 1024 -224 1024 -288
WIRE 1120 -224 1120 -320
WIRE 1120 -224 1024 -224
WIRE 1200 -224 1200 -304
WIRE 1200 -224 1120 -224
WIRE 592 0 496 0
WIRE 672 0 592 0
WIRE 1104 0 672 0
WIRE 1280 0 1104 0
WIRE 496 64 496 0
WIRE 592 64 592 0
WIRE 672 64 672 0
WIRE 1104 64 1104 0
WIRE 64 160 -32 160
WIRE 496 160 496 128
WIRE 496 160 144 160
WIRE 912 160 496 160
WIRE 1104 160 1104 128
WIRE 1104 160 992 160
WIRE -128 192 -128 128
WIRE 1280 256 1280 0
WIRE -128 320 -128 272
WIRE -16 384 -16 352
WIRE 176 384 -16 384
WIRE 592 384 592 128
WIRE 592 384 256 384
WIRE 912 384 592 384
WIRE 1104 384 1104 160
WIRE 1104 384 992 384
WIRE 1168 384 1104 384
WIRE -16 416 -16 384
WIRE -16 544 -16 496
WIRE 64 608 64 576
WIRE 256 608 64 608
WIRE 672 608 672 128
WIRE 672 608 336 608
WIRE 912 608 672 608
WIRE 1104 608 1104 384
WIRE 1104 608 992 608
WIRE 1104 624 1104 608
WIRE 64 640 64 608
WIRE 496 640 496 160
WIRE 592 640 592 384
WIRE 672 640 672 608
WIRE 496 736 496 704
WIRE 592 736 592 704
WIRE 592 736 496 736
WIRE 672 736 672 704
WIRE 672 736 592 736
WIRE 1104 736 1104 688
WIRE 1104 736 672 736
WIRE 1280 736 1280 336
WIRE 1280 736 1104 736
WIRE 64 768 64 720
FLAG -368 752 0
FLAG -368 672 vtr
FLAG 928 112 c1
FLAG 976 112 0
FLAG 928 336 c2
FLAG 976 336 0
FLAG 928 560 c3
FLAG 976 560 0
FLAG -128 128 vp1
FLAG -128 320 0
FLAG -16 352 vp2
FLAG -16 544 0
FLAG 64 576 vp3
FLAG 64 768 0
FLAG 240 -64 0
FLAG 240 -144 c1
FLAG 352 -128 0
FLAG 352 -208 c2
FLAG 464 -192 0
FLAG 464 -272 c3
FLAG -64 -384 I_filter
FLAG -32 -224 0
FLAG 1168 384 0
FLAG 1120 -224 0
FLAG -32 80 0
FLAG 1104 0 hvp
FLAG 1104 736 hvn
FLAG 672 1008 0
FLAG 672 928 cccc
SYMBOL voltage -128 176 R0
WINDOW 123 0 0 Left 0
WINDOW 39 0 0 Left 0
SYMATTR InstName V1
SYMATTR Value SINE(0 310 50)
SYMBOL voltage -368 656 R0
WINDOW 123 0 0 Left 0
WINDOW 39 0 0 Left 0
SYMATTR InstName V2
SYMATTR Value PULSE(0 1 0 5u 5u 0 10u)
SYMBOL sw 1008 160 R90
SYMATTR InstName S1
SYMBOL sw 1008 384 R90
SYMATTR InstName S2
SYMBOL sw 1008 608 R90
SYMATTR InstName S3
SYMBOL ind 160 144 R90
WINDOW 0 5 56 VBottom 2
WINDOW 3 32 56 VTop 2
SYMATTR InstName L1
SYMATTR Value {Lb}
SYMATTR SpiceLine Rser=1m
SYMBOL voltage -16 400 R0
WINDOW 123 0 0 Left 0
WINDOW 39 0 0 Left 0
SYMATTR InstName V3
SYMATTR Value SINE(0 310 50 0 0 120)
SYMBOL ind 272 368 R90
WINDOW 0 5 56 VBottom 2
WINDOW 3 32 56 VTop 2
SYMATTR InstName L2
SYMATTR Value {Lb}
SYMATTR SpiceLine Rser=1m
SYMBOL voltage 64 624 R0
WINDOW 123 0 0 Left 0
WINDOW 39 0 0 Left 0
SYMATTR InstName V4
SYMATTR Value SINE(0 310 50 0 0 240)
SYMBOL ind 352 592 R90
WINDOW 0 5 56 VBottom 2
WINDOW 3 32 56 VTop 2
SYMATTR InstName L3
SYMATTR Value {Lb}
SYMATTR SpiceLine Rser=1m
SYMBOL diode 512 128 R180
WINDOW 0 24 64 Left 2
WINDOW 3 24 0 Left 2
SYMATTR InstName D1
SYMATTR Value DD
SYMBOL diode 608 128 R180
WINDOW 0 24 64 Left 2
WINDOW 3 24 0 Left 2
SYMATTR InstName D2
SYMATTR Value DD
SYMBOL diode 688 128 R180
WINDOW 0 24 64 Left 2
WINDOW 3 24 0 Left 2
SYMATTR InstName D3
SYMATTR Value DD
SYMBOL diode 512 704 R180
WINDOW 0 24 64 Left 2
WINDOW 3 24 0 Left 2
SYMATTR InstName D4
SYMATTR Value DD
SYMBOL diode 608 704 R180
WINDOW 0 24 64 Left 2
WINDOW 3 24 0 Left 2
SYMATTR InstName D5
SYMATTR Value DD
SYMBOL diode 688 704 R180
WINDOW 0 24 64 Left 2
WINDOW 3 24 0 Left 2
SYMATTR InstName D6
SYMATTR Value DD
SYMBOL cap 1088 64 R0
SYMATTR InstName C1
SYMATTR Value 50µ
SYMATTR SpiceLine Rser=1m
SYMBOL cap 1088 624 R0
SYMATTR InstName C2
SYMATTR Value 50µ
SYMATTR SpiceLine Rser=1m
SYMBOL res 1264 240 R0
SYMATTR InstName R1
SYMATTR Value 100
SYMBOL bv 240 -160 R0
SYMATTR InstName B1
SYMATTR Value V=if( (1 - abs(v(vp1))/310 - v(vtr)) > 0, 5, 0)
SYMBOL bv 352 -224 R0
SYMATTR InstName B2
SYMATTR Value V=if( (1 - abs(v(vp2))/310- v(vtr)) > 0, 5, 0)
SYMBOL bv 464 -288 R0
SYMATTR InstName B3
SYMATTR Value V=if( (1 - abs(v(vp3))/310 - v(vtr)) > 0, 5, 0)
SYMBOL bi -128 -288 R180
WINDOW 0 24 80 Left 2
WINDOW 3 24 0 Left 2
SYMATTR InstName B4
SYMATTR Value I=i(L1)
SYMBOL cap -48 -384 R0
SYMATTR InstName C3
SYMATTR Value 100µ
SYMBOL res 32 -400 R0
SYMATTR InstName R2
SYMATTR Value 1
SYMBOL bi 1024 -288 R180
WINDOW 0 24 80 Left 2
WINDOW 3 24 0 Left 2
SYMATTR InstName B5
SYMATTR Value I=v(c1)
SYMBOL cap 1104 -384 R0
SYMATTR InstName C4
SYMATTR Value 100µ
SYMBOL res 1184 -400 R0
SYMATTR InstName R3
SYMATTR Value 1
SYMBOL voltage -32 176 R180
WINDOW 0 24 96 Left 2
WINDOW 3 24 16 Left 2
WINDOW 123 0 0 Left 0
WINDOW 39 0 0 Left 0
SYMATTR InstName V5
SYMATTR Value 300
SYMBOL bv 672 912 R0
SYMATTR InstName B6
SYMATTR Value V=1 - abs(v(vp1))/310
TEXT -88 848 Left 2 !.model SW SW(Ron = 10m Roff = 1Meg vt=0.5 vh = 0.1)
TEXT -400 872 Left 2 !.tran 40m
TEXT -384 -48 Left 2 !.ic i(L1) = 0  i(L2) = 0  i(L3) = 0
TEXT 0 1032 Left 2 !.model DD D(Is=1e-6 Rs=0.01 N=2 Cjo=0)
TEXT 8 64 Left 2 !.param Lb=200u
TEXT 976 864 Left 2 !.ic v(hvp) = 350 v(hvn)=-350
