Version 4.1
SHEET 1 2480 680
WIRE 528 -240 400 -240
WIRE 624 -240 592 -240
WIRE 400 -224 400 -240
WIRE -96 -208 -256 -208
WIRE -16 -208 -96 -208
WIRE 176 -208 -16 -208
WIRE 624 -208 624 -240
WIRE -96 -192 -96 -208
WIRE 176 -192 176 -208
WIRE -256 -176 -256 -208
WIRE -96 -112 -96 -128
WIRE -16 -112 -16 -128
WIRE -16 -112 -96 -112
WIRE 16 -112 -16 -112
WIRE -96 -96 -96 -112
WIRE 176 -96 176 -112
WIRE 400 -96 400 -144
WIRE -96 -16 -96 -32
WIRE -96 -16 -176 -16
WIRE -16 -16 -96 -16
WIRE 160 -16 -16 -16
WIRE 176 -16 160 -16
WIRE -176 0 -176 -16
WIRE 160 0 160 -16
WIRE -256 48 -256 -112
WIRE -176 112 -176 64
FLAG 624 -144 0
FLAG 400 -16 0
FLAG 624 -240 vout
FLAG -96 -208 Vin
FLAG -16 -16 Vsn0
FLAG -256 48 0
FLAG 16 -112 VsnM
FLAG -176 112 0
FLAG 160 80 0
FLAG 208 64 0
FLAG 208 16 vcmd
FLAG 528 0 vcmd
FLAG 528 80 0
SYMBOL ind 160 -208 R0
SYMATTR InstName Lmp
SYMATTR Value 600”
SYMATTR Type ind
SYMBOL ind 416 -128 R180
WINDOW 0 36 80 Left 2
WINDOW 3 36 40 Left 2
SYMATTR InstName Lms
SYMATTR Value 14.2”
SYMATTR Type ind
SYMATTR SpiceLine Rser=1
SYMBOL ind 416 0 R180
WINDOW 0 36 80 Left 2
WINDOW 3 36 40 Left 2
SYMATTR InstName Llk2
SYMATTR Value 0.426”
SYMBOL cap 608 -208 R0
SYMATTR InstName C1
SYMATTR Value 470”
SYMBOL ind 160 -112 R0
SYMATTR InstName Llk1
SYMATTR Value 18”
SYMBOL cap -112 -192 R0
SYMATTR InstName C3
SYMATTR Value 10n
SYMBOL diode -80 -32 R180
WINDOW 0 24 64 Left 2
WINDOW 3 24 0 Left 2
SYMATTR InstName D2
SYMBOL cap -272 -176 R0
SYMATTR InstName C4
SYMATTR Value 4”
SYMBOL cap -192 0 R0
SYMATTR InstName Coss
SYMATTR Value 38.32p
SYMBOL diode 528 -224 R270
WINDOW 0 32 32 VTop 2
WINDOW 3 0 32 VBottom 2
SYMATTR InstName D1
SYMATTR Value SB2100
SYMATTR Prefix X
SYMBOL res -32 -224 R0
SYMATTR InstName R1
SYMATTR Value 82K
SYMBOL sw 160 96 R180
SYMATTR InstName S1
SYMBOL voltage 528 -16 R0
WINDOW 123 0 0 Left 0
WINDOW 39 0 0 Left 0
SYMATTR InstName V1
SYMATTR Value PULSE(-5 10 0 50n 50n 0.5u 7u)
TEXT 216 -264 Left 2 !k Lmp Lms 1
TEXT -256 168 Left 2 !.ic i(Lmp)=0.250 i(Lms)=0 i(Llk2)=0 v(vout)=11.3 v(Vsn0)=0 v(Vin)=350 v(VsnM)=450
TEXT -40 120 Left 2 !.tran 0 40u 28u
TEXT -128 -360 Left 2 !.include sb2100_spice.lib
TEXT 576 -64 Left 2 !.model SW SW(Roff =1Meg Ron =40, vh=0.5, vt=0.5)
