Version 4.1
SHEET 1 880 680
WIRE 80 160 16 160
WIRE 272 160 224 160
WIRE 304 160 272 160
WIRE 16 176 16 160
WIRE 304 176 304 160
WIRE 304 272 304 240
WIRE 16 288 16 256
FLAG 304 272 0
FLAG 16 288 0
FLAG 272 160 vc
FLAG 16 160 Vpulse
SYMBOL diode 80 176 R270
WINDOW 0 32 32 VTop 2
WINDOW 3 0 32 VBottom 2
SYMATTR InstName D1
SYMATTR Value 1N4148
SYMBOL res 128 176 R270
WINDOW 0 32 56 VTop 2
WINDOW 3 87 58 VBottom 2
SYMATTR InstName R1
SYMATTR Value 2.15
SYMBOL cap 288 176 R0
SYMATTR InstName C1
SYMATTR Value 1µ
SYMBOL voltage 16 160 R0
WINDOW 123 0 0 Left 0
WINDOW 39 0 0 Left 0
SYMATTR InstName V1
SYMATTR Value PULSE(0 12 0 60n 60n 5u 10u)
TEXT -16 312 Left 2 !.tran 100u
TEXT 312 72 Left 2 !.ic v(vc)=0
