Version 4.1
SHEET 1 1220 680
WIRE 144 -432 -16 -432
WIRE -16 -400 -16 -432
WIRE 80 -144 -16 -144
WIRE -16 -128 -16 -144
WIRE 464 -128 464 -208
WIRE 464 -32 464 -128
WIRE 480 -32 464 -32
WIRE 640 -32 640 -80
WIRE 32 48 16 48
FLAG 160 -80 0
FLAG -16 -48 0
FLAG -16 -320 0
FLAG -16 -144 vgs_meas
FLAG 144 -352 0
FLAG 192 112 0
FLAG 16 48 vgs_meas
FLAG 640 32 0
FLAG 464 -128 vgs_meas
FLAG 640 -144 D
FLAG 848 -112 D
FLAG 848 -32 0
FLAG 896 -48 0
FLAG 896 -96 vgs_meas
SYMBOL res 64 -128 R270
WINDOW 0 32 56 VTop 2
WINDOW 3 0 56 VBottom 2
SYMATTR InstName R_sim
SYMATTR Value 9
SYMBOL cap 144 -144 R0
SYMATTR InstName C1
SYMATTR Value 7.61n
SYMBOL voltage -16 -144 R0
WINDOW 123 0 0 Left 0
WINDOW 39 0 0 Left 0
SYMATTR InstName V1
SYMATTR Value PWL file=vgs_on.txt
SYMBOL voltage -16 -416 R0
WINDOW 123 0 0 Left 0
WINDOW 39 0 0 Left 0
SYMATTR InstName V2
SYMATTR Value PWL file=ig_on.txt
SYMBOL res 128 -448 R0
SYMATTR InstName R_Measurement
SYMATTR Value 1
SYMBOL res 96 64 R270
WINDOW 0 32 56 VTop 2
WINDOW 3 0 56 VBottom 2
SYMATTR InstName R_sim2
SYMATTR Value 9
SYMBOL cap 176 48 R0
SYMATTR InstName C2
SYMATTR Value 7.61n
SYMBOL ind 128 32 R90
WINDOW 0 5 56 VBottom 2
WINDOW 3 32 56 VTop 2
SYMATTR InstName L1
SYMATTR Value 100n
SYMBOL res 544 -16 R270
WINDOW 0 32 56 VTop 2
WINDOW 3 0 56 VBottom 2
SYMATTR InstName R_sim3
SYMATTR Value 9
SYMBOL cap 624 -32 R0
SYMATTR InstName C3
SYMATTR Value 6n
SYMBOL ind 576 -48 R90
WINDOW 0 5 56 VBottom 2
WINDOW 3 32 56 VTop 2
SYMATTR InstName L2
SYMATTR Value 1n
SYMBOL cap 624 -144 R0
SYMATTR InstName C4
SYMATTR Value 200p
SYMBOL sw 848 -16 R180
SYMATTR InstName S1
SYMATTR Value mysw
TEXT -48 -16 Left 2 !.tran 2u
TEXT -136 -208 Left 2 ;9=3(external)+5(driver)+1(mos)
TEXT 472 -320 Left 2 !.model mysw sw(Ron=1m, Roff=1Meg, Vt =6, Vh = 0.1)
TEXT 712 -184 Left 2 !.ic v(D)=48
