Version 4.1
SHEET 1 880 680
WIRE -64 64 -192 64
WIRE 64 64 16 64
WIRE 112 64 64 64
FLAG 112 144 0
FLAG -192 144 0
FLAG 320 144 0
FLAG 320 64 vs
FLAG 64 64 vp
SYMBOL ind 96 48 R0
SYMATTR InstName L1
SYMATTR Value 2300µ
SYMATTR Type ind
SYMBOL ind 336 160 R180
WINDOW 0 36 80 Left 2
WINDOW 3 36 40 Left 2
SYMATTR InstName L2
SYMATTR Value 13.72µ
SYMATTR Type ind
SYMBOL voltage -192 48 R0
WINDOW 123 0 0 Left 0
WINDOW 39 0 0 Left 0
SYMATTR InstName V1
SYMATTR Value SINE(0 6.7 132k)
SYMBOL res 32 48 R90
WINDOW 0 0 56 VBottom 2
WINDOW 3 32 56 VTop 2
SYMATTR InstName R1
SYMATTR Value 1m
TEXT 144 48 Left 2 !k L1 L2 1
TEXT -224 168 Left 2 !.tran 20u
