Version 4.1
SHEET 1 2372 1044
WIRE 416 -976 416 -992
WIRE 1248 -832 1248 -896
WIRE 1248 -832 720 -832
WIRE 1600 -832 1248 -832
WIRE 1712 -832 1664 -832
WIRE 176 -816 176 -864
WIRE 176 -816 80 -816
WIRE 256 -816 176 -816
WIRE 416 -816 416 -896
WIRE 416 -816 336 -816
WIRE -432 -800 -496 -800
WIRE -496 -768 -496 -800
WIRE -496 -768 -560 -768
WIRE -64 -768 -496 -768
WIRE 1664 -768 1664 -832
WIRE -560 -736 -560 -768
WIRE 1584 -720 1552 -720
WIRE 2080 -720 1744 -720
WIRE 2208 -720 2208 -736
WIRE 2208 -720 2080 -720
WIRE 2080 -704 2080 -720
WIRE 1552 -672 1552 -720
WIRE 1584 -672 1552 -672
WIRE 1552 -656 1552 -672
WIRE -560 -624 -560 -656
WIRE -352 -624 -560 -624
WIRE 80 -624 80 -720
WIRE 80 -624 -352 -624
WIRE 416 -592 416 -816
WIRE 496 -592 416 -592
WIRE 2080 -592 2080 -624
WIRE 1248 -528 1248 -560
WIRE 1600 -528 1248 -528
WIRE 1664 -528 1664 -624
WIRE 1712 -528 1664 -528
WIRE 816 -416 816 -464
WIRE 208 -368 208 -400
WIRE 208 -368 96 -368
WIRE 272 -368 208 -368
WIRE 416 -368 416 -592
WIRE 416 -368 352 -368
WIRE -432 -352 -496 -352
WIRE -496 -320 -496 -352
WIRE -496 -320 -544 -320
WIRE -48 -320 -496 -320
WIRE -544 -288 -544 -320
WIRE 816 -272 816 -336
WIRE 96 -240 96 -272
FLAG 720 -752 0
FLAG 1248 -896 pre_
FLAG 1552 -656 0
FLAG 96 -240 0
FLAG 816 -272 0
FLAG 816 -464 V3.3
FLAG 416 -992 V3.3
FLAG 176 -864 CompOut
FLAG 208 -400 DisableMCU
FLAG 496 -592 clr_
FLAG -544 -208 0
FLAG 2080 -592 0
FLAG 2208 -736 EN
FLAG -352 -624 0
FLAG -432 -352 DisableMCU_Event
FLAG -432 -800 CompOut_Event
FLAG 1248 -560 clr_
FLAG 1712 -832 pre
FLAG 1712 -528 clr
SYMBOL Digital\\inv 1600 -896 R0
WINDOW 3 -74 97 Left 2
SYMATTR InstName A1
SYMATTR Value VHIGH=3.3
SYMBOL Digital\\dflop 1664 -768 R0
WINDOW 3 24 176 Left 2
SYMATTR InstName A2
SYMATTR Value Vhigh=3.3
SYMBOL Digital\\inv 1600 -592 R0
WINDOW 3 -48 100 Left 2
SYMATTR InstName A3
SYMATTR Value VHIGH=3.3
SYMBOL voltage 720 -848 R0
WINDOW 123 0 0 Left 0
WINDOW 39 0 0 Left 0
SYMATTR InstName V1
SYMATTR Value PULSE(3.3 0 0.2u 100n 100n 0.5u 3.5u)
SYMBOL res 48 -336 R90
WINDOW 0 0 56 VBottom 2
WINDOW 3 32 56 VTop 2
SYMATTR InstName R1
SYMATTR Value 220
SYMBOL npn 16 -816 R0
SYMATTR InstName Q2
SYMATTR Value 2N3391A
SYMBOL res -80 -752 R270
WINDOW 0 32 56 Invisible 2
WINDOW 3 0 56 VBottom 2
SYMATTR InstName R2
SYMATTR Value 220
SYMBOL res 400 -992 R0
WINDOW 0 36 40 Invisible 2
SYMATTR InstName R3
SYMATTR Value 10k
SYMBOL voltage 816 -432 R0
WINDOW 123 0 0 Left 0
WINDOW 39 0 0 Left 0
SYMATTR InstName V3
SYMATTR Value 3.3
SYMBOL res 352 -832 R90
WINDOW 0 0 56 Invisible 2
WINDOW 3 32 56 VTop 2
SYMATTR InstName R4
SYMATTR Value 1m
SYMBOL res 368 -384 R90
WINDOW 0 0 56 Invisible 2
WINDOW 3 32 56 VTop 2
SYMATTR InstName R5
SYMATTR Value 1m
SYMBOL voltage -560 -752 R0
WINDOW 123 0 0 Left 0
WINDOW 39 0 0 Left 0
SYMATTR InstName V4
SYMATTR Value PULSE(0 3.3 2u 100n 100n 1U 100u)
SYMBOL voltage -544 -304 R0
WINDOW 123 0 0 Left 0
WINDOW 39 0 0 Left 0
SYMATTR InstName V5
SYMATTR Value PULSE(0 3.3 5u 100n 100n 1u 100u)
SYMBOL res 2064 -720 R0
WINDOW 0 36 40 Invisible 2
SYMATTR InstName R7
SYMATTR Value 100k
SYMBOL npn 32 -368 R0
SYMATTR InstName Q1
SYMATTR Value 2N3391A
TEXT 784 -192 Left 2 !.tran 10u
TEXT -600 -976 Left 2 ;Comparators
TEXT -624 -512 Left 2 ;MUC-DESABLE
TEXT 648 -864 Left 2 ;MUC-ENABLE
TEXT 1456 -368 Left 2 ;DFLOP
TEXT 2232 -816 Left 2 ;DRIVER
TEXT -624 -480 Left 2 ;OPEN DRAIN OUTPUT
RECTANGLE Normal -624 -1008 336 -592 2
RECTANGLE Normal -640 -544 368 -112 2
RECTANGLE Normal 1440 -896 1936 -352 2
RECTANGLE Normal 2176 -832 2368 -528 2
RECTANGLE Normal 1216 -672 624 -896 2
