Version 4.1
SHEET 1 904 680
WIRE -144 96 -368 96
WIRE -368 128 -368 96
WIRE -144 128 -144 96
WIRE -96 128 -144 128
WIRE 288 128 192 128
WIRE 416 128 288 128
WIRE 416 144 416 128
WIRE -96 208 -144 208
WIRE 192 208 192 128
WIRE 288 208 192 208
WIRE 416 208 416 192
WIRE 416 208 288 208
WIRE -368 240 -368 208
WIRE -144 240 -144 208
WIRE -144 240 -368 240
WIRE 64 288 64 224
WIRE -16 304 -16 224
WIRE 16 304 -16 304
WIRE 128 304 128 224
WIRE 128 304 96 304
SYMBOL voltage -368 112 R0
WINDOW 0 38 42 Left 2
WINDOW 3 24 96 Invisible 2
WINDOW 123 39 71 Left 2
SYMATTR InstName Vin
SYMATTR Value2 DC power supply
SYMBOL res 112 288 R90
WINDOW 0 0 56 Invisible 2
WINDOW 3 32 56 Invisible 2
SYMATTR InstName R1
SYMBOL res 272 112 R0
WINDOW 0 -19 -12 Left 2
WINDOW 3 36 76 Invisible 2
SYMATTR InstName R_load
TEXT -88 136 Left 2 ;+\nInp\n-
TEXT 184 136 Right 2 ;+\nOut\n-
TEXT 8 168 Left 2 ;DC-DC
TEXT 64 328 Center 1 ;Potentiometer to control \nthe frequency
TEXT 416 168 Center 1 ;Multimeter
LINE Normal 64 288 64 272
LINE Normal 80 272 64 288
LINE Normal 48 272 80 272
LINE Normal 64 288 48 272
RECTANGLE Normal -96 112 192 224
RECTANGLE Normal 464 192 368 144
