Version 4.1
SHEET 1 880 680
WIRE 224 0 -128 0
WIRE 432 0 224 0
WIRE 224 16 224 0
WIRE -128 32 -128 0
WIRE 432 32 432 0
WIRE 176 96 144 96
WIRE 144 112 144 96
WIRE 224 112 144 112
WIRE 224 144 224 112
WIRE 432 144 432 112
WIRE 432 144 224 144
WIRE 224 160 224 144
WIRE 176 240 144 240
WIRE -128 272 -128 112
WIRE 224 272 224 256
WIRE 224 272 -128 272
SYMBOL nmos 176 160 R0
WINDOW 0 56 32 Invisible 2
SYMATTR InstName M1
SYMATTR Value IPW60R037P7
SYMBOL nmos 176 16 R0
WINDOW 0 56 32 Invisible 2
SYMATTR InstName M2
SYMATTR Value IPW60R037P7
SYMBOL ind 416 16 R0
SYMATTR InstName L1
SYMBOL voltage -128 16 R0
WINDOW 0 24 16 Invisible 2
SYMATTR InstName V1
SYMATTR Value Power_supplay
TEXT 408 176 Left 2 ;Inductance\nCurrent
TEXT 512 64 Left 2 ;Inductance\nVoltage
TEXT 8 192 Left 1 ;STM32F1 \nmicrocontroller \nand driver
LINE Normal 496 0 480 16 2
LINE Normal 512 16 496 0 2
LINE Normal 480 16 512 16 2
LINE Normal 496 0 480 16 2
LINE Normal 496 144 496 0 2
LINE Normal 400 192 352 160 2
RECTANGLE Normal 0 176 144 272 2
CIRCLE Normal 368 160 336 128 2
