Version 4.1
SHEET 1 880 680
WIRE 496 48 464 48
WIRE 496 96 496 48
WIRE 80 128 80 48
WIRE 80 128 0 128
WIRE 144 128 80 128
WIRE 320 128 224 128
WIRE 400 128 400 48
WIRE 400 128 368 128
WIRE 640 128 400 128
WIRE 320 144 320 128
WIRE 368 144 368 128
WIRE 640 192 640 128
WIRE 0 208 0 128
WIRE 368 240 368 224
WIRE 464 240 368 240
WIRE 368 256 368 240
WIRE 336 304 336 144
WIRE 352 304 352 144
WIRE 368 352 368 336
WIRE 448 352 368 352
WIRE 640 352 640 272
WIRE 640 352 448 352
WIRE 320 368 320 224
WIRE 448 368 448 352
WIRE 0 432 0 288
WIRE 320 432 320 416
WIRE 320 432 0 432
WIRE 320 448 320 432
FLAG 320 448 0
FLAG 80 48 CH1
FLAG 400 48 CH2
FLAG 496 96 0
FLAG 448 368 0
SYMBOL ind 240 112 R90
WINDOW 0 5 56 VBottom 2
WINDOW 3 32 56 Invisible 2
SYMATTR InstName Lr
SYMBOL ind 336 240 R180
WINDOW 0 36 80 Left 2
WINDOW 3 36 40 Invisible 2
SYMATTR InstName Lmp
SYMBOL cap 304 368 R0
WINDOW 3 24 56 Invisible 2
SYMATTR InstName Cr
SYMBOL voltage 0 192 R0
WINDOW 0 24 16 Invisible 2
SYMATTR InstName V1
SYMATTR Value Function Generator
SYMBOL ind 352 128 R0
WINDOW 3 36 80 Invisible 2
SYMATTR InstName Lms1
SYMBOL ind 352 240 R0
WINDOW 3 36 80 Invisible 2
SYMATTR InstName Lms2
SYMBOL res 624 176 R0
WINDOW 3 36 76 Invisible 2
SYMATTR InstName Rload
TEXT 192 32 Left 2 ;Oscillosope
TEXT 464 232 Left 1 ;Midpoint \non air
TEXT 312 112 Left 2 ;4:1:1
RECTANGLE Normal 32 -32 480 80 2
