Version 4.1
SHEET 1 904 680
WIRE 672 -32 512 -32
WIRE 512 -16 512 -32
WIRE 672 64 672 -32
WIRE 704 64 672 64
WIRE -272 80 -384 80
WIRE -32 80 -192 80
WIRE 448 80 -32 80
WIRE 512 80 512 64
WIRE 560 80 512 80
WIRE -32 96 -32 80
WIRE 176 96 -32 96
WIRE 272 96 224 96
WIRE 448 96 448 80
WIRE 512 96 512 80
WIRE -32 112 -32 96
WIRE 176 112 176 96
WIRE 224 112 224 96
WIRE 704 112 672 112
WIRE 272 128 272 96
WIRE -384 160 -384 80
WIRE 480 176 480 0
WIRE 496 176 496 0
WIRE 448 192 448 176
WIRE 512 192 512 176
WIRE 672 192 672 112
WIRE 672 192 512 192
WIRE -32 208 -32 192
WIRE 176 208 176 192
WIRE 176 208 -32 208
WIRE 224 208 224 192
WIRE 272 208 272 176
WIRE 272 208 224 208
WIRE -32 256 -32 208
WIRE 16 256 -32 256
WIRE -32 272 -32 256
WIRE 16 304 16 256
WIRE 32 304 16 304
WIRE -32 352 -32 336
WIRE 32 352 -32 352
WIRE -384 384 -384 240
WIRE -32 384 -32 352
WIRE -32 384 -384 384
WIRE 448 384 448 352
WIRE 448 384 -32 384
WIRE -32 400 -32 384
FLAG -32 400 0
SYMBOL ind 432 80 R0
WINDOW 0 -55 52 Left 2
WINDOW 3 36 80 Invisible 2
SYMATTR InstName Lmp
SYMBOL cap -48 272 R0
WINDOW 3 24 56 Invisible 2
SYMATTR InstName Cr
SYMBOL sw 448 368 R180
WINDOW 0 24 16 Invisible 2
WINDOW 3 24 96 Invisible 2
SYMATTR InstName S1
SYMATTR Value 5V 250V 10 Relay
SYMBOL voltage -384 144 R0
WINDOW 3 24 96 Invisible 2
WINDOW 123 46 65 Left 2
SYMATTR InstName Vin
SYMATTR Value2 DC power supply
SYMBOL res -176 64 R90
WINDOW 0 -13 44 VBottom 2
WINDOW 3 57 58 VBottom 2
SYMATTR InstName R_limitation
SYMATTR Value 20k
SYMBOL res -48 96 R0
SYMATTR InstName R_shunt
SYMATTR Value 7m
SYMBOL ind 240 208 R180
WINDOW 0 36 80 Invisible 2
WINDOW 3 36 40 Invisible 2
SYMATTR InstName L1
SYMBOL ind 160 96 R0
WINDOW 0 36 40 Invisible 2
WINDOW 3 36 80 Invisible 2
SYMATTR InstName L2
SYMBOL ind 432 176 R0
WINDOW 0 -29 49 Left 2
WINDOW 3 36 80 Invisible 2
SYMATTR InstName Lr
SYMBOL ind 496 80 R0
WINDOW 3 36 80 Invisible 2
SYMATTR InstName Lms2
SYMBOL ind 496 -32 R0
WINDOW 3 36 80 Invisible 2
SYMATTR InstName Lms1
TEXT 504 296 Left 1 ;Control cirucit 6V\n+ reverse diode
TEXT 272 144 Left 1 ;Oscillo \nCH3 50ohm
TEXT 128 224 Left 1 ;Insulation transfo
TEXT 48 296 Left 1 ;Insulation probe\nYokogawa 700924\nx100\nto CH1
TEXT 336 304 Left 1 ;5V 250V \n10A Relay
TEXT 712 80 Center 1 ;Oscillo CH4 \n(no isolated probe x 10)
TEXT 264 424 Left 1 ;Current Sensor TCP202 to CH2
LINE Normal 320 416 320 400 2
RECTANGLE Normal 32 368 208 288 2
CIRCLE Normal 336 400 304 368 2
