Version 4.1
SHEET 1 880 680
WIRE -64 -48 -128 -48
WIRE 64 -48 32 -48
WIRE 112 -48 64 -48
WIRE 176 -48 112 -48
WIRE 400 -48 352 -48
WIRE 448 -48 400 -48
WIRE -128 -16 -128 -48
WIRE 112 16 112 -48
WIRE 176 16 112 16
WIRE 400 16 400 -48
WIRE 400 16 352 16
WIRE 64 32 64 -48
WIRE 448 48 448 -48
WIRE 448 48 384 48
WIRE -128 112 -128 64
WIRE 64 112 64 80
WIRE 64 112 -128 112
WIRE 448 112 448 48
WIRE 448 112 64 112
WIRE -80 352 -144 352
WIRE 48 352 16 352
WIRE 96 352 48 352
WIRE 160 352 96 352
WIRE 432 352 336 352
WIRE -144 384 -144 352
WIRE 432 400 432 352
WIRE 432 400 336 400
WIRE 96 416 96 352
WIRE 160 416 96 416
WIRE 48 432 48 352
WIRE 432 448 432 400
WIRE 432 448 368 448
WIRE -144 512 -144 464
WIRE 48 512 48 480
WIRE 48 512 -144 512
WIRE 432 512 432 448
WIRE 432 512 48 512
FLAG 176 -48 HV+
FLAG 176 16 HV-
FLAG 352 -48 OUT+
FLAG 352 16 OUT-
FLAG 384 48 Heatsink-GND
FLAG 160 352 HV+
FLAG 160 416 HV-
FLAG 336 352 Pin1
FLAG 368 448 Heatsink-GND
FLAG 336 400 Pin2...6
SYMBOL voltage -128 -32 R0
WINDOW 0 24 16 Invisible 2
WINDOW 3 47 65 Left 2
SYMATTR InstName V1
SYMATTR Value 500V
SYMBOL voltage -144 368 R0
WINDOW 0 24 16 Invisible 2
WINDOW 3 47 65 Left 2
SYMATTR InstName V2
SYMATTR Value 500V
TEXT -104 -88 Left 2 ;micro-Ampere Meter
TEXT 264 -112 Center 2 ;DC-DC converter
TEXT -120 312 Left 2 ;micro-Ampere Meter
TEXT 248 288 Center 2 ;DC-DC converter
TEXT 256 376 Left 1 ;Com-Pins
TEXT 16 56 Left 1 ;voltmeter
TEXT 0 456 Left 1 ;voltmeter
RECTANGLE Normal 32 -16 -64 -64 3
RECTANGLE Normal 352 32 176 -80 3
RECTANGLE Normal 384 80 160 -96 3
RECTANGLE Normal 16 384 -80 336 3
RECTANGLE Normal 336 432 160 320 3
RECTANGLE Normal 368 480 144 304 3
RECTANGLE Normal 112 80 0 32 3
RECTANGLE Normal 96 480 -16 432 3
