Version 4.1
SHEET 1 956 680
WIRE -432 80 -480 80
WIRE -192 80 -352 80
WIRE 16 80 -192 80
WIRE 176 80 16 80
WIRE 400 80 176 80
WIRE 560 80 400 80
WIRE 848 80 688 80
WIRE 400 128 400 80
WIRE 848 128 848 80
WIRE -192 144 -192 80
WIRE 16 144 16 80
WIRE 176 144 176 80
WIRE -480 176 -480 80
WIRE -480 272 -480 256
WIRE -192 272 -192 224
WIRE -192 272 -480 272
WIRE 16 272 16 224
WIRE 16 272 -192 272
WIRE 176 272 176 208
WIRE 176 272 16 272
WIRE 400 272 400 208
WIRE 400 272 176 272
WIRE 560 272 400 272
WIRE 848 272 848 208
WIRE 848 272 688 272
SYMBOL cap 160 144 R0
WINDOW 0 47 35 Left 2
WINDOW 3 47 63 Left 2
SYMATTR InstName DC-Capacitor
SYMATTR Value 4µF
SYMBOL res 384 112 R0
WINDOW 0 -102 2 Left 2
WINDOW 3 36 76 Invisible 2
SYMATTR InstName Discharge-Resistors
SYMBOL voltage -480 160 R0
WINDOW 0 15 92 Left 2
WINDOW 3 24 96 Invisible 2
SYMATTR InstName Power-supply
SYMBOL sw -336 80 R90
WINDOW 0 24 16 Invisible 2
WINDOW 3 24 96 Invisible 2
SYMATTR InstName S1
SYMBOL res 832 112 R0
WINDOW 3 36 76 Invisible 2
SYMATTR InstName R-Load
TEXT -48 200 Left 2 ;Aux-FlyBack
TEXT -192 160 Center 1 ;differential \nvoltage \nprobe
TEXT -424 8 Left 2 ;Relay
TEXT 176 24 Left 2 ;DCDC-LLC
TEXT -104 64 Left 2 ;HV+
TEXT -104 288 Left 2 ;HV-
TEXT 512 328 Left 2 ;Primary
TEXT 664 328 Left 2 ;Secondary
LINE Normal 640 48 640 304 3
RECTANGLE Normal 112 224 -80 144 2
RECTANGLE Normal 704 304 -112 48
RECTANGLE Normal -144 224 -256 144
