Version 4.1
SHEET 1 880 680
WIRE -144 48 -304 48
WIRE 96 48 96 -16
WIRE 96 48 -144 48
WIRE 304 48 96 48
WIRE 544 48 304 48
WIRE 96 80 96 48
WIRE 304 80 304 48
WIRE -304 112 -304 48
WIRE -144 112 -144 48
WIRE 544 160 544 48
WIRE 96 192 96 160
WIRE -304 304 -304 176
WIRE -144 304 -144 176
WIRE -144 304 -304 304
WIRE 96 304 96 272
WIRE 96 304 -144 304
WIRE 304 304 304 144
WIRE 304 304 96 304
WIRE 544 304 544 224
WIRE 544 304 304 304
FLAG 96 304 0
FLAG 96 -16 HVP
SYMBOL res 80 64 R0
SYMATTR InstName R1
SYMATTR Value {7*56k*1.01}
SYMBOL cap 288 80 R0
SYMATTR InstName C1
SYMATTR Value {4u*1.1}
SYMBOL cap -160 112 R0
SYMATTR InstName C2
SYMATTR Value {100n*1.1*2}
SYMBOL res 80 176 R0
SYMATTR InstName R2
SYMATTR Value {1k*1.01}
SYMBOL cap -320 112 R0
SYMATTR InstName C3
SYMATTR Value {2n*1.2}
SYMBOL cap 528 160 R0
SYMATTR InstName C4
SYMATTR Value {120n*1.05}
TEXT 168 -40 Left 2 !.ic v(HVP)=600
TEXT -320 328 Left 2 !.tran 5
TEXT -264 8 Left 2 ;EMI filter
TEXT 16 328 Left 2 ;Discharge Res
TEXT 264 336 Left 2 ;DC-Capa
TEXT 448 336 Left 2 ;Resonant capa
