Version 4
SHEET 1 1604 680
WIRE -256 -128 -752 -128
WIRE -64 -128 -256 -128
WIRE 896 -128 400 -128
WIRE -64 -112 -64 -128
WIRE -64 -112 -80 -112
WIRE -16 -112 -64 -112
WIRE 48 -112 -16 -112
WIRE 112 -112 48 -112
WIRE -80 -80 -80 -112
WIRE -16 -80 -16 -112
WIRE 48 -80 48 -112
WIRE 112 -80 112 -112
WIRE -256 -32 -256 -128
WIRE 896 -32 896 -128
WIRE -80 16 -80 -16
WIRE -64 16 -80 16
WIRE -16 16 -16 -16
WIRE -16 16 -64 16
WIRE 48 16 48 -16
WIRE 48 16 -16 16
WIRE 112 16 112 -16
WIRE 112 16 48 16
WIRE -464 48 -592 48
WIRE -304 48 -384 48
WIRE 688 48 560 48
WIRE 848 48 768 48
WIRE -752 64 -752 -128
WIRE -592 64 -592 48
WIRE 400 64 400 -128
WIRE 560 64 560 48
WIRE -592 192 -592 144
WIRE -256 192 -256 64
WIRE -256 192 -592 192
WIRE 560 192 560 144
WIRE 896 192 896 64
WIRE 896 192 560 192
WIRE -256 224 -256 192
WIRE -176 224 -176 176
WIRE -176 224 -256 224
WIRE -32 224 -176 224
WIRE 112 224 48 224
WIRE 240 224 112 224
WIRE 896 224 896 192
WIRE 992 224 992 176
WIRE 992 224 896 224
WIRE 1040 224 992 224
WIRE 1184 224 1120 224
WIRE 1312 224 1184 224
WIRE 112 240 112 224
WIRE 240 240 240 224
WIRE 1184 240 1184 224
WIRE 1312 240 1312 224
WIRE -256 288 -256 224
WIRE 896 288 896 224
WIRE -64 336 -64 16
WIRE 112 336 112 320
WIRE 112 336 -64 336
WIRE 240 336 240 320
WIRE 240 336 112 336
WIRE 1184 336 1184 320
WIRE 1312 336 1312 320
WIRE 1312 336 1184 336
WIRE 1408 336 1392 336
WIRE -64 352 -64 336
WIRE -64 352 -80 352
WIRE -16 352 -64 352
WIRE 48 352 -16 352
WIRE 112 352 48 352
WIRE 144 352 112 352
WIRE -480 368 -592 368
WIRE -304 368 -400 368
WIRE 672 368 560 368
WIRE 848 368 752 368
WIRE 1136 368 1072 368
WIRE 1184 368 1184 336
WIRE 1184 368 1136 368
WIRE 1200 368 1184 368
WIRE 1264 368 1200 368
WIRE 1328 368 1264 368
WIRE 1392 368 1392 336
WIRE 1392 368 1328 368
WIRE 1456 368 1392 368
WIRE 1520 368 1456 368
WIRE -592 384 -592 368
WIRE -80 384 -80 352
WIRE -16 384 -16 352
WIRE 48 384 48 352
WIRE 112 384 112 352
WIRE 560 384 560 368
WIRE 1072 400 1072 368
WIRE 1136 400 1136 368
WIRE 1200 400 1200 368
WIRE 1264 400 1264 368
WIRE 1328 400 1328 368
WIRE 1392 400 1392 368
WIRE 1456 400 1456 368
WIRE 1520 400 1520 368
WIRE -80 480 -80 448
WIRE -64 480 -80 480
WIRE -16 480 -16 448
WIRE -16 480 -64 480
WIRE 48 480 48 448
WIRE 48 480 -16 480
WIRE 112 480 112 448
WIRE 112 480 48 480
WIRE 1072 496 1072 464
WIRE 1136 496 1136 464
WIRE 1136 496 1072 496
WIRE 1184 496 1136 496
WIRE 1200 496 1200 464
WIRE 1200 496 1184 496
WIRE 1264 496 1264 464
WIRE 1264 496 1200 496
WIRE 1328 496 1328 464
WIRE 1328 496 1264 496
WIRE 1392 496 1392 464
WIRE 1392 496 1328 496
WIRE 1456 496 1456 464
WIRE 1456 496 1392 496
WIRE 1520 496 1520 464
WIRE 1520 496 1456 496
WIRE -752 512 -752 144
WIRE -592 512 -592 464
WIRE -592 512 -752 512
WIRE -256 512 -256 384
WIRE -256 512 -592 512
WIRE -64 512 -64 480
WIRE -64 512 -256 512
WIRE 400 512 400 144
WIRE 560 512 560 464
WIRE 560 512 400 512
WIRE 896 512 896 384
WIRE 896 512 560 512
WIRE 1184 512 1184 496
FLAG -1136 192 0
FLAG -1136 112 Vcmd
FLAG 400 512 0
FLAG -752 512 0
FLAG 1184 512 0
FLAG 144 352 VcapaL
FLAG 1408 336 VcapaR
FLAG -176 176 Vm_L
FLAG 992 176 Vm_R
SYMBOL ind 1168 224 R0
SYMATTR InstName L1
SYMATTR Value {Lm}
SYMBOL ind 1136 208 R90
WINDOW 0 5 56 VBottom 2
WINDOW 3 32 56 VTop 2
SYMATTR InstName LrR
SYMATTR Value {Lr}
SYMBOL cap 1088 464 R180
WINDOW 0 24 56 Left 2
WINDOW 3 24 8 Left 2
SYMATTR InstName C1
SYMATTR Value {Cru}
SYMBOL nmos 848 -32 R0
SYMATTR InstName M1
SYMATTR Value IXTH88N30P
SYMBOL voltage -1136 96 R0
WINDOW 123 0 0 Left 2
WINDOW 39 0 0 Left 2
SYMATTR InstName V3
SYMATTR Value SINE(0 1 100k)
SYMBOL bv 560 48 R0
SYMATTR InstName B1
SYMATTR Value V= 10*(v(Vcmd)>{ Thresh})
SYMBOL bv 560 368 R0
SYMATTR InstName B2
SYMATTR Value V= 10*(v(Vcmd)<{-Thresh})
SYMBOL nmos 848 288 R0
SYMATTR InstName M2
SYMATTR Value IXTH88N30P
SYMBOL voltage 400 48 R0
WINDOW 123 0 0 Left 2
WINDOW 39 24 124 Left 2
SYMATTR SpiceLine Rser=1m
SYMATTR InstName V1
SYMATTR Value 400
SYMBOL res 784 32 R90
WINDOW 0 0 56 VBottom 2
WINDOW 3 32 56 VTop 2
SYMATTR InstName R1
SYMATTR Value 3
SYMBOL res 768 352 R90
WINDOW 0 0 56 VBottom 2
WINDOW 3 32 56 VTop 2
SYMATTR InstName R2
SYMATTR Value 3
SYMBOL res 1296 224 R0
SYMATTR InstName R_load_R
SYMATTR Value 22.6
SYMBOL ind 96 224 R0
SYMATTR InstName L3
SYMATTR Value {Lm}
SYMBOL ind 64 208 R90
WINDOW 0 5 56 VBottom 2
WINDOW 3 32 56 VTop 2
SYMATTR InstName LrL
SYMATTR Value {Lr}
SYMBOL nmos -304 -32 R0
SYMATTR InstName M3
SYMATTR Value IXTH88N30P
SYMBOL bv -592 48 R0
SYMATTR InstName B3
SYMATTR Value V= 10*(v(Vcmd)>{ Thresh})
SYMBOL bv -592 368 R0
SYMATTR InstName B4
SYMATTR Value V= 10*(v(Vcmd)<{-Thresh})
SYMBOL nmos -304 288 R0
SYMATTR InstName M4
SYMATTR Value IXTH88N30P
SYMBOL voltage -752 48 R0
WINDOW 123 0 0 Left 2
WINDOW 39 24 124 Left 2
SYMATTR SpiceLine Rser=1m
SYMATTR InstName V2
SYMATTR Value 400
SYMBOL res -368 32 R90
WINDOW 0 0 56 VBottom 2
WINDOW 3 32 56 VTop 2
SYMATTR InstName R4
SYMATTR Value 3
SYMBOL res -384 352 R90
WINDOW 0 0 56 VBottom 2
WINDOW 3 32 56 VTop 2
SYMATTR InstName R5
SYMATTR Value 3
SYMBOL res 224 224 R0
SYMATTR InstName R_load_L
SYMATTR Value 22.6
SYMBOL cap 1152 464 R180
WINDOW 0 24 56 Left 2
WINDOW 3 24 8 Left 2
SYMATTR InstName C2
SYMATTR Value {Cru}
SYMBOL cap 1216 464 R180
WINDOW 0 24 56 Left 2
WINDOW 3 24 8 Left 2
SYMATTR InstName C3
SYMATTR Value {Cru}
SYMBOL cap 1280 464 R180
WINDOW 0 24 56 Left 2
WINDOW 3 24 8 Left 2
SYMATTR InstName C4
SYMATTR Value {Cru}
SYMBOL cap 1344 464 R180
WINDOW 0 24 56 Left 2
WINDOW 3 24 8 Left 2
SYMATTR InstName C5
SYMATTR Value {Cru}
SYMBOL cap 1408 464 R180
WINDOW 0 24 56 Left 2
WINDOW 3 24 8 Left 2
SYMATTR InstName C6
SYMATTR Value {Cru}
SYMBOL cap 1472 464 R180
WINDOW 0 24 56 Left 2
WINDOW 3 24 8 Left 2
SYMATTR InstName C7
SYMATTR Value {Cru}
SYMBOL cap 1536 464 R180
WINDOW 0 -64 72 Left 2
WINDOW 3 24 8 Left 2
SYMATTR InstName C_u_R
SYMATTR Value {Cru}
SYMBOL cap -64 -16 R180
WINDOW 0 24 56 Left 2
WINDOW 3 24 8 Left 2
SYMATTR InstName C9
SYMATTR Value {Cru}
SYMBOL cap 0 -16 R180
WINDOW 0 24 56 Left 2
WINDOW 3 24 8 Left 2
SYMATTR InstName C10
SYMATTR Value {Cru}
SYMBOL cap 64 -16 R180
WINDOW 0 24 56 Left 2
WINDOW 3 24 8 Left 2
SYMATTR InstName C11
SYMATTR Value {Cru}
SYMBOL cap 128 -16 R180
WINDOW 0 24 56 Left 2
WINDOW 3 24 8 Left 2
SYMATTR InstName C12
SYMATTR Value {Cru}
SYMBOL cap -64 448 R180
WINDOW 0 24 56 Left 2
WINDOW 3 24 8 Left 2
SYMATTR InstName C13
SYMATTR Value {Cru}
SYMBOL cap 0 448 R180
WINDOW 0 24 56 Left 2
WINDOW 3 24 8 Left 2
SYMATTR InstName C14
SYMATTR Value {Cru}
SYMBOL cap 64 448 R180
WINDOW 0 24 56 Left 2
WINDOW 3 24 8 Left 2
SYMATTR InstName C15
SYMATTR Value {Cru}
SYMBOL cap 128 448 R180
WINDOW 0 -56 56 Left 2
WINDOW 3 24 8 Left 2
SYMATTR InstName C_u_L
SYMATTR Value {Cru}
TEXT -1160 16 Left 2 !.param Freq = 100k Thresh=0.2
TEXT -1144 240 Left 2 !.tran 30u
TEXT -1144 312 Left 2 !.param Cru=15n Lr=21.8u Lm=65.4u
