Version 4
SHEET 1 880 680
WIRE -1280 -768 -1392 -768
WIRE -1280 -736 -1280 -768
WIRE -1328 -656 -1344 -656
WIRE -352 -656 -368 -656
WIRE -256 -656 -288 -656
WIRE -112 -656 -176 -656
WIRE -16 -656 -112 -656
WIRE -1392 -640 -1392 -768
WIRE -880 -640 -912 -640
WIRE -784 -640 -816 -640
WIRE -672 -640 -784 -640
WIRE -576 -640 -672 -640
WIRE -112 -640 -112 -656
WIRE -16 -640 -16 -656
WIRE -912 -624 -912 -640
WIRE -1280 -592 -1280 -640
WIRE -1232 -592 -1280 -592
WIRE -1136 -592 -1168 -592
WIRE -992 -592 -1056 -592
WIRE -368 -592 -368 -656
WIRE -992 -576 -992 -592
WIRE -1280 -528 -1280 -592
WIRE -912 -528 -912 -544
WIRE -672 -528 -672 -576
WIRE -672 -528 -912 -528
WIRE -576 -528 -576 -560
WIRE -576 -528 -672 -528
WIRE -912 -512 -912 -528
WIRE -368 -480 -368 -512
WIRE -112 -480 -112 -560
WIRE -112 -480 -368 -480
WIRE -16 -480 -16 -560
WIRE -16 -480 -112 -480
WIRE -1328 -448 -1344 -448
WIRE -1392 -416 -1392 -560
WIRE -1280 -416 -1280 -432
WIRE -1280 -416 -1392 -416
WIRE -992 -416 -992 -496
WIRE -992 -416 -1280 -416
WIRE -912 -400 -912 -432
WIRE -864 -400 -912 -400
WIRE -784 -400 -784 -640
WIRE -784 -400 -800 -400
SYMBOL ind -1008 -592 R0
WINDOW 0 -35 63 Left 2
WINDOW 3 36 80 Invisible 2
SYMATTR InstName Lm
SYMATTR Value 65.4µ
SYMBOL ind -1040 -608 R90
WINDOW 0 5 56 VBottom 2
WINDOW 3 32 56 Invisible 2
SYMATTR InstName Lr
SYMATTR Value 21.8µ
SYMBOL cap -1232 -576 R270
WINDOW 0 32 32 VTop 2
WINDOW 3 0 32 Invisible 2
SYMATTR InstName Cr
SYMATTR Value {Cr}
SYMBOL nmos -1328 -736 R0
WINDOW 0 56 32 Invisible 2
WINDOW 3 56 72 Invisible 2
WINDOW 40 66 48 Left 2
SYMATTR InstName M1
SYMATTR Value IXTH88N30P
SYMATTR SpiceLine2 QH
SYMBOL nmos -1328 -528 R0
WINDOW 0 56 32 Invisible 2
WINDOW 3 56 72 Invisible 2
WINDOW 40 68 44 Left 2
SYMATTR InstName M2
SYMATTR Value IXTH88N30P
SYMATTR SpiceLine2 QL
SYMBOL voltage -1392 -656 R0
WINDOW 0 -145 66 Left 2
WINDOW 3 24 96 Invisible 2
SYMATTR InstName Vin=Vdc
SYMATTR Value 400
SYMATTR SpiceLine Rser=1m
SYMBOL ind2 -928 -640 R0
WINDOW 0 49 56 Left 2
WINDOW 3 36 80 Invisible 2
SYMATTR InstName LsH
SYMATTR Type ind
SYMBOL ind2 -928 -528 R0
WINDOW 0 50 51 Left 2
WINDOW 3 36 80 Invisible 2
SYMATTR InstName LsL
SYMATTR Type ind
SYMBOL diode -880 -624 R270
WINDOW 0 32 32 VTop 2
WINDOW 3 0 32 Invisible 2
SYMATTR InstName DH
SYMBOL diode -864 -384 R270
WINDOW 0 -27 35 VTop 2
WINDOW 3 0 32 Invisible 2
SYMATTR InstName DL
SYMBOL cap -688 -640 R0
WINDOW 0 42 41 Left 2
WINDOW 3 24 56 Invisible 2
SYMATTR InstName Co
SYMBOL res -592 -656 R0
WINDOW 0 42 69 Left 2
WINDOW 3 36 76 Invisible 2
SYMATTR InstName RL
SYMBOL ind -128 -656 R0
WINDOW 0 -35 63 Left 2
WINDOW 3 36 80 Invisible 2
SYMATTR InstName Lm
SYMATTR Value 65.4µ
SYMBOL ind -160 -672 R90
WINDOW 0 5 56 VBottom 2
WINDOW 3 32 56 Invisible 2
SYMATTR InstName Lr
SYMATTR Value 21.8µ
SYMBOL cap -352 -640 R270
WINDOW 0 32 32 VTop 2
WINDOW 3 0 32 Invisible 2
SYMATTR InstName Cr
SYMATTR Value {Cr}
SYMBOL voltage -368 -608 R0
WINDOW 0 -96 60 Left 2
WINDOW 3 24 96 Invisible 2
SYMATTR InstName Vgs
SYMATTR Value 400
SYMATTR SpiceLine Rser=1m
SYMBOL res -32 -656 R0
WINDOW 0 -41 60 Left 2
WINDOW 3 36 76 Invisible 2
SYMATTR InstName Re
TEXT -976 -664 Left 2 ;n:1:1
TEXT 16 -624 Left 2 ;+\nVoe\n -
LINE Normal -944 -400 -944 -640 2
LINE Normal -960 -400 -960 -640 2
LINE Normal -960 -400 -960 -400 2
LINE Normal -960 -400 -960 -400 2
LINE Normal -960 -400 -960 -400 2
LINE Normal -512 -336 -512 -864 2
RECTANGLE Normal 96 -336 -1552 -864 2
