Version 4.1
SHEET 1 880 680
WIRE -1280 -848 -1392 -848
WIRE -1280 -816 -1280 -848
WIRE -1328 -736 -1344 -736
WIRE -1392 -720 -1392 -848
WIRE -784 -720 -912 -720
WIRE -912 -704 -912 -720
WIRE -1280 -672 -1280 -720
WIRE -1232 -672 -1280 -672
WIRE -1136 -672 -1168 -672
WIRE -992 -672 -1056 -672
WIRE -992 -656 -992 -672
WIRE -352 -656 -368 -656
WIRE -256 -656 -288 -656
WIRE -112 -656 -176 -656
WIRE -16 -656 -112 -656
WIRE -112 -640 -112 -656
WIRE -16 -640 -16 -656
WIRE -1280 -608 -1280 -672
WIRE -912 -608 -912 -624
WIRE -672 -608 -912 -608
WIRE -576 -608 -672 -608
WIRE -912 -592 -912 -608
WIRE -368 -592 -368 -656
WIRE -1328 -528 -1344 -528
WIRE -1392 -496 -1392 -640
WIRE -1280 -496 -1280 -512
WIRE -1280 -496 -1392 -496
WIRE -992 -496 -992 -576
WIRE -992 -496 -1280 -496
WIRE -672 -496 -672 -544
WIRE -624 -496 -672 -496
WIRE -576 -496 -576 -528
WIRE -576 -496 -624 -496
WIRE -912 -480 -912 -512
WIRE -784 -480 -784 -720
WIRE -368 -480 -368 -512
WIRE -112 -480 -112 -560
WIRE -112 -480 -368 -480
WIRE -16 -480 -16 -560
WIRE -16 -480 -112 -480
WIRE -960 -400 -976 -400
WIRE -720 -400 -736 -400
FLAG -784 -384 0
FLAG -912 -384 0
FLAG -624 -496 0
SYMBOL ind -1008 -672 R0
WINDOW 0 -35 63 Left 2
WINDOW 3 36 80 Invisible 2
SYMATTR InstName Lm
SYMATTR Value 65.4µ
SYMBOL ind -1040 -688 R90
WINDOW 0 5 56 VBottom 2
WINDOW 3 32 56 Invisible 2
SYMATTR InstName Lr
SYMATTR Value 21.8µ
SYMBOL cap -1232 -656 R270
WINDOW 0 32 32 VTop 2
WINDOW 3 0 32 Invisible 2
SYMATTR InstName Cr
SYMATTR Value {Cr}
SYMBOL nmos -1328 -816 R0
WINDOW 0 56 32 Invisible 2
WINDOW 3 56 72 Invisible 2
WINDOW 40 66 48 Left 2
SYMATTR InstName M1
SYMATTR Value IXTH88N30P
SYMATTR SpiceLine2 QH
SYMBOL nmos -1328 -608 R0
WINDOW 0 56 32 Invisible 2
WINDOW 3 56 72 Invisible 2
WINDOW 40 68 44 Left 2
SYMATTR InstName M2
SYMATTR Value IXTH88N30P
SYMATTR SpiceLine2 QL
SYMBOL voltage -1392 -736 R0
WINDOW 0 -145 66 Left 2
WINDOW 3 24 96 Invisible 2
SYMATTR InstName Vin=Vdc
SYMATTR Value 400
SYMATTR SpiceLine Rser=1m
SYMBOL ind2 -928 -720 R0
WINDOW 0 49 56 Left 2
WINDOW 3 36 80 Invisible 2
SYMATTR InstName LsH
SYMATTR Type ind
SYMBOL ind2 -928 -608 R0
WINDOW 0 50 51 Left 2
WINDOW 3 36 80 Invisible 2
SYMATTR InstName LsL
SYMATTR Type ind
SYMBOL cap -688 -608 R0
WINDOW 0 42 41 Left 2
WINDOW 3 24 56 Invisible 2
SYMATTR InstName Co
SYMBOL res -592 -624 R0
WINDOW 0 42 69 Left 2
WINDOW 3 36 76 Invisible 2
SYMATTR InstName RL
SYMBOL ind -128 -656 R0
WINDOW 0 -35 63 Left 2
WINDOW 3 36 80 Invisible 2
SYMATTR InstName Lm
SYMATTR Value 65.4µ
SYMBOL ind -160 -672 R90
WINDOW 0 5 56 VBottom 2
WINDOW 3 32 56 Invisible 2
SYMATTR InstName Lr
SYMATTR Value 21.8µ
SYMBOL cap -352 -640 R270
WINDOW 0 32 32 VTop 2
WINDOW 3 0 32 Invisible 2
SYMATTR InstName Cr
SYMATTR Value {Cr}
SYMBOL voltage -368 -608 R0
WINDOW 0 -96 60 Left 2
WINDOW 3 24 96 Invisible 2
SYMATTR InstName Vgs
SYMATTR Value 400
SYMATTR SpiceLine Rser=1m
SYMBOL res -32 -656 R0
WINDOW 0 -41 60 Left 2
WINDOW 3 36 76 Invisible 2
SYMATTR InstName Re
SYMBOL nmos -960 -480 R0
WINDOW 0 56 32 Invisible 2
WINDOW 3 56 72 Invisible 2
WINDOW 40 -44 53 Left 2
SYMATTR InstName M3
SYMATTR Value IXTH88N30P
SYMATTR SpiceLine2 QsH
SYMBOL nmos -736 -480 M0
WINDOW 0 56 32 Invisible 2
WINDOW 3 56 72 Invisible 2
WINDOW 40 -45 59 Left 2
SYMATTR InstName M4
SYMATTR Value IXTH88N30P
SYMATTR SpiceLine2 QsH
TEXT -976 -744 Left 2 ;n:1:1
TEXT 16 -624 Left 2 ;+\nVoe\n -
LINE Normal -944 -480 -944 -720 2
LINE Normal -960 -480 -960 -720 2
LINE Normal -960 -480 -960 -480 2
LINE Normal -960 -480 -960 -480 2
LINE Normal -960 -480 -960 -480 2
LINE Normal -512 -336 -512 -864 2
RECTANGLE Normal 96 -336 -1552 -864 2
