Version 4.1
SHEET 1 1996 680
WIRE 1280 96 976 96
WIRE 1280 128 1280 96
WIRE 1280 176 1280 128
WIRE 1280 320 1280 256
WIRE 1280 320 1264 320
WIRE 1088 400 976 400
WIRE 1216 400 1168 400
WIRE 976 416 976 400
WIRE 1264 464 1264 416
FLAG 976 496 0
FLAG 1264 464 0
FLAG 976 176 0
FLAG 1344 128 0
SYMBOL voltage 976 80 R0
WINDOW 123 0 0 Left 0
WINDOW 39 24 124 Left 2
SYMATTR SpiceLine Rser=100m
SYMATTR InstName V3
SYMATTR Value 400
SYMBOL voltage 976 400 R0
WINDOW 123 0 0 Left 0
WINDOW 39 0 0 Left 0
SYMATTR InstName V4
SYMATTR Value PULSE(-20 10 0 200N 200N 1u 7u)
SYMBOL res 1184 384 R90
WINDOW 0 0 56 VBottom 2
WINDOW 3 32 56 VTop 2
SYMATTR InstName R2
SYMATTR Value 3
SYMBOL nmos 1216 320 R0
SYMATTR InstName M4
SYMATTR Value IPW60R060C7_L0
SYMATTR Prefix X
SYMBOL res 1264 160 R0
SYMATTR InstName R3
SYMATTR Value 10
SYMBOL cap 1344 112 R90
WINDOW 0 0 32 VBottom 2
WINDOW 3 32 32 VTop 2
SYMATTR InstName C1
SYMATTR Value 100p
TEXT 400 528 Left 2 !.tran 50U
TEXT 480 96 Left 2 !.include IPW60R060C7.lib
