Version 4.1
SHEET 1 7588 1476
WIRE 832 -176 768 -176
WIRE 864 -176 832 -176
WIRE 1056 -176 944 -176
WIRE 1472 -176 1056 -176
WIRE 1056 -112 1056 -176
WIRE 1472 -112 1472 -176
WIRE 1056 -96 1056 -112
WIRE 1008 -80 944 -80
WIRE 1008 -32 1008 -80
WIRE 1056 -16 1056 -32
WIRE 944 0 944 -80
WIRE 1056 0 1056 -16
WIRE 1056 0 944 0
WIRE 1072 0 1056 0
WIRE 1328 16 1328 -32
WIRE 1328 16 1072 16
WIRE 1472 16 1472 -32
WIRE 1472 16 1328 16
WIRE 1056 32 1056 0
WIRE 1072 32 1072 16
WIRE 1072 32 1056 32
WIRE 1056 48 1056 32
WIRE 1280 80 1088 80
WIRE 880 128 768 128
WIRE 976 128 960 128
WIRE 1008 128 976 128
WIRE 768 144 768 128
WIRE 1280 144 1280 80
WIRE 1312 160 1312 144
WIRE 928 176 896 176
WIRE 1056 176 1056 144
WIRE 1056 176 928 176
WIRE 1088 176 1088 80
WIRE 1088 176 1056 176
WIRE 1120 176 1088 176
WIRE 1264 176 1200 176
WIRE 928 208 928 176
WIRE 976 208 928 208
WIRE 768 224 752 224
WIRE 848 224 768 224
WIRE 896 224 848 224
FLAG 768 -96 0
FLAG 1264 176 0
FLAG 832 -240 0
FLAG 848 224 0
SYMBOL voltage 768 -192 R0
WINDOW 123 0 0 Left 0
WINDOW 39 24 124 Left 2
SYMATTR SpiceLine Rser=10m
SYMATTR InstName V1
SYMATTR Value 400
SYMBOL voltage 768 128 R0
WINDOW 123 0 0 Left 0
WINDOW 39 0 0 Left 0
WINDOW 3 -105 138 Left 2
SYMATTR Value PWL(0 0 1u 0 1.1u 10 7u 10 7.1u 0 8u 0 8.1u 10 9u 10 9.1u 0 10u 0)
SYMATTR InstName V2
SYMBOL res 976 112 R90
WINDOW 0 0 56 VBottom 2
WINDOW 3 32 56 VTop 2
SYMATTR InstName R1
SYMATTR Value 10
SYMBOL nmos 1008 48 R0
SYMATTR InstName M2
SYMATTR Value IPW60R060C7_L0
SYMATTR Prefix X
SYMBOL nmos 1008 -112 R0
SYMATTR InstName M3
SYMATTR Value IPW60R060C7_L0
SYMATTR Prefix X
SYMBOL ind 1456 -128 R0
SYMATTR InstName L1
SYMATTR Value 20µ
SYMBOL ind 960 -192 R90
WINDOW 0 5 56 VBottom 2
WINDOW 3 32 56 VTop 2
SYMATTR InstName L2
SYMATTR Value 10n
SYMBOL ind 1104 192 R270
WINDOW 0 32 56 VTop 2
WINDOW 3 5 56 VBottom 2
SYMATTR InstName L3
SYMATTR Value 10n
SYMBOL cap 816 -240 R0
SYMATTR InstName C2
SYMATTR Value 100µ
SYMBOL res 960 112 R0
SYMATTR InstName R2
SYMATTR Value 10k
TEXT 656 1320 Left 2 !.tran 10u
TEXT 2096 592 Left 2 !.SUBCKT IPW60R060C7_L0  drain  gate  source\nLg     gate  g1    5n\nLd     drain d1    3n\nLs     source s1   5n\nRs      s1    s2   1.2m\nRg     g1    g2     0.79\nM1      d2    g2    s2    s2    DMOS    L=1u   W=1u\n.MODEL DMOS NMOS ( KP= 65.492  VTO=4.05  THETA=0  VMAX=1.5e5  ETA=0  LEVEL=3)\nRd     d2    d1a    0.044 TC=19m\n.MODEL MVDR NMOS (KP=145.7 VTO=-1   LAMBDA=0.15)\nMr d1 d2a d1a d1a MVDR W=1u L=1u\nRx d2a d1a 1m\nCds1 s2 d2 27.2p\nDbd     s2    d2    Dbt\n.MODEL     Dbt    D(BV=600   M=0.9  CJO=5.45n  VJ=0.5V)\nDbody   s2   21    DBODY\n.MODEL DBODY  D(IS=1843936p  N=1.95  RS=8u  EG=1.12  TT=250n)\nRdiode  d1  21    3.46m TC=6m\n.MODEL   sw    NMOS(VTO=0  KP=10   LEVEL=1)\nMaux      g2   c    a    a   sw\nMaux2     b    d    g2    g2   sw\nEaux      c    a    d2    g2   1\nEaux2     d    g2   d2    g2   -1\nCox       b    d2   0.96n\n.MODEL     DGD    D(M=0.55   CJO=0.96n   VJ=0.5)\nRpar      b    d2   1Meg\nDgd       a    d2   DGD\nRpar2     d2   a    10Meg\nCgs     g2    s2    2.81n\n.ENDS  IPW60R060C7_L0
TEXT 1920 -256 Left 2 ;.SUBCKT IPW60R060C7_L1 drain gate source PARAMS: dVth=0 dRdson=0\n.PARAM Rs=6.20E-04    Rg=0.79    Rdp=8.00E-05          Ls=3.50E-09        Ld=2.23E-09\n.PARAM Lg=8.16E-09    act=15.896        Inn={1.0*15.896}  Unn=10.0       Rmax=60m\nX1  dd g s Tj Tj cool_600_k1_var PARAMS: a={act} dVth={dVth} dR={dRdson} Inn={Inn} Unn={Unn} \n                                      +Rmax={Rmax} Rs={Rs} Rdp={Rdp} heat=0\nL_Ld         drain  ldrd    {Ld}\nR_Ld         drain  ldrd    10\nR_Rd         dd     ldrd    {Rdp}\nL_Ls         source lsrs  {Ls}\nR_Ls         source lsrs  10\nR_Rs         s      lsrs  {Rs}\nL_Lg         gate   lgrg  {Lg}\nR_Lg         gate   lgrg  10\nR_Rg         lgrg   g     {Rg}\nE1    Tj     w      VALUE={TEMP}\nR1    w      0      1u\n.ENDS
