Version 4.1
SHEET 1 1764 704
WIRE 400 -16 144 -16
WIRE 400 112 400 -16
WIRE 320 160 288 160
WIRE 288 192 288 160
WIRE 320 192 288 192
WIRE 400 288 400 240
FLAG 400 288 0
FLAG 144 64 0
FLAG 288 192 0
FLAG 320 128 0
FLAG 320 224 0
SYMBOL 74HC74 304 144 R0
WINDOW 3 0 0 Left 0
SYMATTR InstName X1
SYMATTR Value 74HC74
SYMATTR Prefix X
SYMBOL voltage 144 -32 R0
WINDOW 123 0 0 Left 0
WINDOW 39 0 0 Left 0
SYMATTR InstName V1
SYMATTR Value 5
TEXT 296 -104 Left 2 !*.include 74hc.lib
TEXT 104 312 Left 2 !.tran 1
TEXT 104 -192 Left 2 !.include "C:\\Users\\a037702\\NotSynchronized\\git\\Design_of_1200W_LLC_DCDC\\74HC74\\74hc.lib"
