Version 4.1
SHEET 1 1604 680
WIRE -256 -128 -752 -128
WIRE -64 -128 -256 -128
WIRE -64 -112 -64 -128
WIRE -64 -112 -80 -112
WIRE -16 -112 -64 -112
WIRE 48 -112 -16 -112
WIRE 112 -112 48 -112
WIRE -80 -80 -80 -112
WIRE -16 -80 -16 -112
WIRE 48 -80 48 -112
WIRE 112 -80 112 -112
WIRE -256 -32 -256 -128
WIRE -80 16 -80 -16
WIRE -64 16 -80 16
WIRE -16 16 -16 -16
WIRE -16 16 -64 16
WIRE 48 16 48 -16
WIRE 48 16 -16 16
WIRE 112 16 112 -16
WIRE 112 16 48 16
WIRE -464 48 -592 48
WIRE -304 48 -384 48
WIRE -752 64 -752 -128
WIRE -592 64 -592 48
WIRE -592 192 -592 144
WIRE -256 192 -256 64
WIRE -256 192 -592 192
WIRE -256 224 -256 192
WIRE -176 224 -176 176
WIRE -176 224 -256 224
WIRE -32 224 -176 224
WIRE 112 224 48 224
WIRE 240 224 112 224
WIRE 112 240 112 224
WIRE 240 240 240 224
WIRE -256 288 -256 224
WIRE -64 336 -64 16
WIRE 112 336 112 320
WIRE 112 336 -64 336
WIRE 240 336 240 320
WIRE 240 336 112 336
WIRE -64 352 -64 336
WIRE -64 352 -80 352
WIRE -16 352 -64 352
WIRE 48 352 -16 352
WIRE 112 352 48 352
WIRE 144 352 112 352
WIRE -480 368 -592 368
WIRE -304 368 -400 368
WIRE -592 384 -592 368
WIRE -80 384 -80 352
WIRE -16 384 -16 352
WIRE 48 384 48 352
WIRE 112 384 112 352
WIRE -80 480 -80 448
WIRE -64 480 -80 480
WIRE -16 480 -16 448
WIRE -16 480 -64 480
WIRE 48 480 48 448
WIRE 48 480 -16 480
WIRE 112 480 112 448
WIRE 112 480 48 480
WIRE -752 512 -752 144
WIRE -592 512 -592 464
WIRE -592 512 -752 512
WIRE -256 512 -256 384
WIRE -256 512 -592 512
WIRE -64 512 -64 480
WIRE -64 512 -256 512
FLAG -1136 192 0
FLAG -1136 112 Vcmd
FLAG -752 512 0
FLAG 144 352 VcapaL
FLAG -176 176 Vm_L
SYMBOL voltage -1136 96 R0
WINDOW 123 0 0 Left 2
WINDOW 39 0 0 Left 2
SYMATTR InstName V3
SYMATTR Value SINE(0 1 100k)
SYMBOL ind 96 224 R0
SYMATTR InstName L3
SYMATTR Value {Lm}
SYMBOL ind 64 208 R90
WINDOW 0 5 56 VBottom 2
WINDOW 3 32 56 VTop 2
SYMATTR InstName LrL
SYMATTR Value {Lr}
SYMBOL nmos -304 -32 R0
SYMATTR InstName M3
SYMATTR Value IXTH88N30P
SYMBOL bv -592 48 R0
SYMATTR InstName B3
SYMATTR Value V= 10*(v(Vcmd)>{ Thresh})
SYMBOL bv -592 368 R0
SYMATTR InstName B4
SYMATTR Value V= 10*(v(Vcmd)<{-Thresh})
SYMBOL nmos -304 288 R0
SYMATTR InstName M4
SYMATTR Value IXTH88N30P
SYMBOL voltage -752 48 R0
WINDOW 123 0 0 Left 2
WINDOW 39 24 124 Left 2
SYMATTR SpiceLine Rser=1m
SYMATTR InstName V2
SYMATTR Value 400
SYMBOL res -368 32 R90
WINDOW 0 0 56 VBottom 2
WINDOW 3 32 56 VTop 2
SYMATTR InstName R4
SYMATTR Value 3
SYMBOL res -384 352 R90
WINDOW 0 0 56 VBottom 2
WINDOW 3 32 56 VTop 2
SYMATTR InstName R5
SYMATTR Value 3
SYMBOL res 224 224 R0
SYMATTR InstName R_load_L
SYMATTR Value 22.6
SYMBOL cap -64 -16 R180
WINDOW 0 24 56 Left 2
WINDOW 3 24 8 Left 2
SYMATTR InstName C9
SYMATTR Value {Cru}
SYMBOL cap 0 -16 R180
WINDOW 0 24 56 Left 2
WINDOW 3 24 8 Left 2
SYMATTR InstName C10
SYMATTR Value {Cru}
SYMBOL cap 64 -16 R180
WINDOW 0 24 56 Left 2
WINDOW 3 24 8 Left 2
SYMATTR InstName C11
SYMATTR Value {Cru}
SYMBOL cap 128 -16 R180
WINDOW 0 24 56 Left 2
WINDOW 3 24 8 Left 2
SYMATTR InstName C12
SYMATTR Value {Cru}
SYMBOL cap -64 448 R180
WINDOW 0 24 56 Left 2
WINDOW 3 24 8 Left 2
SYMATTR InstName C13
SYMATTR Value {Cru}
SYMBOL cap 0 448 R180
WINDOW 0 24 56 Left 2
WINDOW 3 24 8 Left 2
SYMATTR InstName C14
SYMATTR Value {Cru}
SYMBOL cap 64 448 R180
WINDOW 0 24 56 Left 2
WINDOW 3 24 8 Left 2
SYMATTR InstName C15
SYMATTR Value {Cru}
SYMBOL cap 128 448 R180
WINDOW 0 -56 56 Left 2
WINDOW 3 24 8 Left 2
SYMATTR InstName C_u_L
SYMATTR Value {Cru}
TEXT -1160 16 Left 2 !.param Freq = 100k Thresh=0.2
TEXT -1144 240 Left 2 !.tran 30u
TEXT -1144 312 Left 2 !.param Cru=15n Lr=21.8u Lm=65.4u
