Version 4.1
SHEET 1 1604 680
WIRE 896 -128 400 -128
WIRE 896 -32 896 -128
WIRE 688 48 560 48
WIRE 848 48 768 48
WIRE 400 64 400 -128
WIRE 560 64 560 48
WIRE 560 192 560 144
WIRE 896 192 896 64
WIRE 896 192 560 192
WIRE 896 224 896 192
WIRE 992 224 992 176
WIRE 992 224 896 224
WIRE 1040 224 992 224
WIRE 1184 224 1120 224
WIRE 1312 224 1184 224
WIRE 1184 240 1184 224
WIRE 1312 240 1312 224
WIRE 896 288 896 224
WIRE 1184 336 1184 320
WIRE 1312 336 1312 320
WIRE 1312 336 1184 336
WIRE 1408 336 1392 336
WIRE 672 368 560 368
WIRE 848 368 752 368
WIRE 1136 368 1072 368
WIRE 1184 368 1184 336
WIRE 1184 368 1136 368
WIRE 1200 368 1184 368
WIRE 1264 368 1200 368
WIRE 1328 368 1264 368
WIRE 1392 368 1392 336
WIRE 1392 368 1328 368
WIRE 1456 368 1392 368
WIRE 1520 368 1456 368
WIRE 560 384 560 368
WIRE 1072 400 1072 368
WIRE 1136 400 1136 368
WIRE 1200 400 1200 368
WIRE 1264 400 1264 368
WIRE 1328 400 1328 368
WIRE 1392 400 1392 368
WIRE 1456 400 1456 368
WIRE 1520 400 1520 368
WIRE 1072 496 1072 464
WIRE 1136 496 1136 464
WIRE 1136 496 1072 496
WIRE 1184 496 1136 496
WIRE 1200 496 1200 464
WIRE 1200 496 1184 496
WIRE 1264 496 1264 464
WIRE 1264 496 1200 496
WIRE 1328 496 1328 464
WIRE 1328 496 1264 496
WIRE 1392 496 1392 464
WIRE 1392 496 1328 496
WIRE 1456 496 1456 464
WIRE 1456 496 1392 496
WIRE 1520 496 1520 464
WIRE 1520 496 1456 496
WIRE 400 512 400 144
WIRE 560 512 560 464
WIRE 560 512 400 512
WIRE 896 512 896 384
WIRE 896 512 560 512
WIRE 1184 512 1184 496
FLAG -80 240 0
FLAG -80 160 Vcmd
FLAG 400 512 0
FLAG 1184 512 0
FLAG 1408 336 VcapaR
FLAG 992 176 Vm_R
SYMBOL ind 1168 224 R0
SYMATTR InstName L1
SYMATTR Value {Lm}
SYMBOL ind 1136 208 R90
WINDOW 0 5 56 VBottom 2
WINDOW 3 32 56 VTop 2
SYMATTR InstName LrR
SYMATTR Value {Lr}
SYMBOL cap 1088 464 R180
WINDOW 0 24 56 Left 2
WINDOW 3 24 8 Left 2
SYMATTR InstName C1
SYMATTR Value {Cru}
SYMBOL nmos 848 -32 R0
SYMATTR InstName M1
SYMATTR Value IXTH88N30P
SYMBOL voltage -80 144 R0
WINDOW 123 0 0 Left 2
WINDOW 39 0 0 Left 2
SYMATTR InstName V3
SYMATTR Value SINE(0 1 100k)
SYMBOL bv 560 48 R0
SYMATTR InstName B1
SYMATTR Value V= 10*(v(Vcmd)>{ Thresh})
SYMBOL bv 560 368 R0
SYMATTR InstName B2
SYMATTR Value V= 10*(v(Vcmd)<{-Thresh})
SYMBOL nmos 848 288 R0
SYMATTR InstName M2
SYMATTR Value IXTH88N30P
SYMBOL voltage 400 48 R0
WINDOW 123 0 0 Left 2
WINDOW 39 24 124 Left 2
SYMATTR SpiceLine Rser=1m
SYMATTR InstName V1
SYMATTR Value 400
SYMBOL res 784 32 R90
WINDOW 0 0 56 VBottom 2
WINDOW 3 32 56 VTop 2
SYMATTR InstName R1
SYMATTR Value 3
SYMBOL res 768 352 R90
WINDOW 0 0 56 VBottom 2
WINDOW 3 32 56 VTop 2
SYMATTR InstName R2
SYMATTR Value 3
SYMBOL res 1296 224 R0
SYMATTR InstName R_load_R
SYMATTR Value 22.6
SYMBOL cap 1152 464 R180
WINDOW 0 24 56 Left 2
WINDOW 3 24 8 Left 2
SYMATTR InstName C2
SYMATTR Value {Cru}
SYMBOL cap 1216 464 R180
WINDOW 0 24 56 Left 2
WINDOW 3 24 8 Left 2
SYMATTR InstName C3
SYMATTR Value {Cru}
SYMBOL cap 1280 464 R180
WINDOW 0 24 56 Left 2
WINDOW 3 24 8 Left 2
SYMATTR InstName C4
SYMATTR Value {Cru}
SYMBOL cap 1344 464 R180
WINDOW 0 24 56 Left 2
WINDOW 3 24 8 Left 2
SYMATTR InstName C5
SYMATTR Value {Cru}
SYMBOL cap 1408 464 R180
WINDOW 0 24 56 Left 2
WINDOW 3 24 8 Left 2
SYMATTR InstName C6
SYMATTR Value {Cru}
SYMBOL cap 1472 464 R180
WINDOW 0 24 56 Left 2
WINDOW 3 24 8 Left 2
SYMATTR InstName C7
SYMATTR Value {Cru}
SYMBOL cap 1536 464 R180
WINDOW 0 -64 72 Left 2
WINDOW 3 24 8 Left 2
SYMATTR InstName C_u_R
SYMATTR Value {Cru}
TEXT -104 64 Left 2 !.param Freq = 100k Thresh=0.2
TEXT -88 288 Left 2 !.tran 30u
TEXT -88 360 Left 2 !.param Cru=15n Lr=21.8u Lm=65.4u
