Version 4.1
SHEET 1 1256 740
WIRE 0 80 -64 80
WIRE 128 80 80 80
WIRE 208 80 128 80
WIRE -64 112 -64 80
WIRE 912 128 848 128
WIRE 1040 128 992 128
WIRE 1120 128 1040 128
WIRE 432 144 368 144
WIRE 560 144 512 144
WIRE 640 144 560 144
WIRE 848 160 848 128
WIRE 368 176 368 144
WIRE 80 192 -64 192
WIRE 128 192 128 144
WIRE 128 192 80 192
WIRE 208 192 208 160
WIRE 208 192 128 192
WIRE 992 240 848 240
WIRE 1040 240 1040 192
WIRE 1040 240 992 240
WIRE 1120 240 1040 240
WIRE 368 256 368 240
WIRE 560 256 560 208
WIRE 368 336 368 256
WIRE 448 336 368 336
WIRE 560 336 448 336
WIRE 128 576 64 576
WIRE 256 576 208 576
WIRE 336 576 256 576
WIRE 608 576 544 576
WIRE 736 576 688 576
WIRE 816 576 736 576
WIRE 64 608 64 576
WIRE 544 608 544 576
WIRE 208 688 64 688
WIRE 256 688 256 640
WIRE 256 688 208 688
WIRE 688 688 544 688
WIRE 736 688 736 640
WIRE 736 688 688 688
FLAG 208 80 vout
FLAG 80 192 0
FLAG 640 144 voutEqu
FLAG 448 336 0
FLAG 1120 128 voutNoD
FLAG 992 240 0
FLAG 336 576 vout22
FLAG 208 688 0
FLAG 336 720 0
FLAG 816 576 vout150
FLAG 688 688 0
FLAG 816 720 0
SYMBOL cap 112 80 R0
SYMATTR InstName C1
SYMATTR Value 100n
SYMBOL ind 96 64 R90
WINDOW 0 5 56 VBottom 2
WINDOW 3 32 56 VTop 2
SYMATTR InstName L1
SYMATTR Value 1.4µ
SYMBOL res 192 64 R0
SYMATTR InstName R1
SYMATTR Value 27
SYMBOL voltage -64 96 R0
WINDOW 123 24 124 Left 2
WINDOW 39 0 0 Left 0
SYMATTR InstName V1
SYMATTR Value ""
SYMATTR Value2 AC 1
SYMBOL cap 544 144 R0
SYMATTR InstName C2
SYMATTR Value 100n
SYMBOL ind 528 128 R90
WINDOW 0 5 56 VBottom 2
WINDOW 3 32 56 VTop 2
SYMATTR InstName L2
SYMATTR Value 1.4µ
SYMBOL voltage 368 160 R0
WINDOW 123 24 124 Left 2
WINDOW 39 0 0 Left 0
SYMATTR InstName V2
SYMATTR Value ""
SYMATTR Value2 AC 1
SYMBOL res 544 240 R0
SYMATTR InstName R2
SYMATTR Value 0.509
SYMBOL cap 1024 128 R0
SYMATTR InstName C3
SYMATTR Value 100n
SYMBOL ind 1008 112 R90
WINDOW 0 5 56 VBottom 2
WINDOW 3 32 56 VTop 2
SYMATTR InstName L3
SYMATTR Value 1.4µ
SYMBOL voltage 848 144 R0
WINDOW 123 24 124 Left 2
WINDOW 39 0 0 Left 0
SYMATTR InstName V3
SYMATTR Value ""
SYMATTR Value2 AC 1
SYMBOL cap 240 576 R0
SYMATTR InstName C4
SYMATTR Value 100n
SYMBOL ind 224 560 R90
WINDOW 0 5 56 VBottom 2
WINDOW 3 32 56 VTop 2
SYMATTR InstName L4
SYMATTR Value 1.4µ
SYMBOL res 320 560 R0
SYMATTR InstName R3
SYMATTR Value 27
SYMBOL voltage 64 592 R0
WINDOW 123 24 124 Left 2
WINDOW 39 0 0 Left 0
SYMATTR InstName V4
SYMATTR Value ""
SYMATTR Value2 AC 1
SYMBOL cap 320 656 R0
SYMATTR InstName C5
SYMATTR Value 2.2nF
SYMBOL cap 720 576 R0
SYMATTR InstName C6
SYMATTR Value 100n
SYMBOL ind 704 560 R90
WINDOW 0 5 56 VBottom 2
WINDOW 3 32 56 VTop 2
SYMATTR InstName L5
SYMATTR Value 1.4µ
SYMBOL res 800 560 R0
SYMATTR InstName R4
SYMATTR Value 27
SYMBOL voltage 544 592 R0
WINDOW 123 24 124 Left 2
WINDOW 39 0 0 Left 0
SYMATTR InstName V5
SYMATTR Value ""
SYMATTR Value2 AC 1
SYMBOL cap 800 656 R0
SYMATTR InstName C7
SYMATTR Value 15n
TEXT -64 360 Left 2 !.ac dec 1000 100k 10Meg
