Version 4.1
SHEET 1 1040 680
WIRE 528 192 352 192
WIRE 528 256 352 256
WIRE 528 320 352 320
WIRE 176 512 176 368
WIRE 352 512 176 512
WIRE 736 512 736 368
WIRE 736 512 528 512
TEXT 176 72 Left 2 ;ESP32-S3 Mini
TEXT 672 72 Center 2 ;OSCILLOSCOPE \nTEKTRONIX \nTDS3034B
TEXT 544 192 Left 2 ;CH1
TEXT 544 256 Left 2 ;CH2
TEXT 544 320 Left 2 ;CH3
TEXT 248 192 Left 2 ;GPIO 13
TEXT 248 256 Left 2 ;GPIO 12
TEXT 248 320 Left 2 ;GPIO 11
TEXT 288 128 Left 2 ;GND
TEXT 400 464 Left 2 ;Laptop
TEXT 240 488 Left 2 ;USB-C
TEXT 568 488 Left 2 ;Ethernet
LINE Normal 368 128 368 304 1
LINE Normal 352 128 368 128 1
RECTANGLE Normal 352 368 144 48 2
RECTANGLE Normal 528 368 784 32 2
RECTANGLE Normal 528 208 368 176 1
RECTANGLE Normal 528 272 368 240 1
RECTANGLE Normal 528 336 368 304 1
RECTANGLE Normal 528 560 352 448 1
