Version 4.1
SHEET 1 880 680
WIRE 384 64 336 64
WIRE 464 64 448 64
WIRE 528 64 464 64
WIRE 624 64 528 64
WIRE -112 80 -176 80
WIRE 16 80 -112 80
WIRE 112 80 16 80
WIRE 256 80 112 80
WIRE 112 96 112 80
WIRE 256 96 256 80
WIRE 336 96 336 64
WIRE 464 96 464 64
WIRE -112 160 -112 80
WIRE 80 160 16 160
WIRE 112 160 80 160
WIRE 256 176 176 176
WIRE 80 192 80 160
WIRE 336 208 336 176
WIRE 368 208 336 208
WIRE 464 208 464 160
WIRE 464 208 368 208
WIRE 528 208 528 64
WIRE 368 240 368 208
WIRE 80 272 80 256
WIRE 176 272 176 176
WIRE 176 272 80 272
WIRE 176 320 176 272
WIRE 528 368 528 352
WIRE 528 368 432 368
WIRE 256 384 208 384
WIRE 432 384 432 368
WIRE 432 384 368 384
WIRE -112 448 -112 224
WIRE -112 448 -176 448
WIRE 176 448 176 416
WIRE 176 448 -112 448
WIRE 256 448 176 448
WIRE 528 448 368 448
WIRE 624 448 528 448
WIRE 528 464 528 448
FLAG 368 240 0
FLAG 528 464 0
FLAG -176 80 HVP
FLAG -176 448 HVN
FLAG 624 448 out_gnd
FLAG 624 64 Vout
SYMBOL ind 272 192 R180
WINDOW 0 40 59 Left 2
WINDOW 3 36 40 Invisible 2
SYMATTR InstName Lp
SYMATTR Type ind
SYMBOL ind 320 80 R0
WINDOW 0 46 69 Left 2
WINDOW 3 36 80 Invisible 2
SYMATTR InstName Ls
SYMATTR Type ind
SYMBOL diode 384 80 R270
WINDOW 0 32 32 VTop 2
WINDOW 3 0 32 Invisible 2
SYMATTR InstName Do
SYMATTR Value 1N5817
SYMATTR Description Diode
SYMATTR Type diode
SYMBOL cap 448 96 R0
WINDOW 3 24 56 Invisible 2
SYMATTR InstName Co
SYMBOL diode 96 256 R180
WINDOW 0 24 64 Left 2
WINDOW 3 24 0 Invisible 2
SYMATTR InstName Dsn
SYMATTR Value VS-E7MH0112
SYMBOL cap 96 96 R0
WINDOW 3 24 56 Invisible 2
SYMATTR InstName Csn
SYMBOL res 0 64 R0
WINDOW 3 36 76 Invisible 2
SYMATTR InstName Rsn
SYMBOL nmos 128 320 R0
WINDOW 0 56 32 Invisible 2
WINDOW 3 56 72 Invisible 2
SYMATTR InstName M1
SYMBOL cap -128 160 R0
WINDOW 0 -46 37 Left 2
WINDOW 3 24 56 Invisible 2
SYMATTR InstName Cin
SYMBOL Contrib\\Wurth\\Optoelectronics\\Optocoupler\\WL-OCPT\\WL-OCPT_Series_817 320 416 M0
WINDOW 38 8 55 Invisible 1
WINDOW 0 8 -56 Invisible 2
SYMATTR InstName Q1
SYMBOL diode 544 272 R180
WINDOW 0 24 64 Invisible 2
WINDOW 3 24 0 Invisible 2
WINDOW 123 -71 35 Left 2
SYMATTR InstName D3
SYMATTR Value UDZV16B
SYMATTR Description Diode
SYMATTR Type diode
SYMATTR Value2 zener
SYMBOL res 512 256 R0
WINDOW 3 36 76 Invisible 2
SYMATTR InstName Rser
SYMBOL res 512 352 R0
WINDOW 3 36 76 Invisible 2
SYMATTR InstName Rpar
TEXT 208 24 Left 2 ;Transformer
TEXT -40 32 Left 2 ;RCD Snubber
TEXT -56 304 Left 2 ;PWM controller
TEXT 288 352 Left 2 ;Opto
LINE Normal 288 176 288 96 2
LINE Normal 304 176 304 96 2
RECTANGLE Normal 160 288 -48 48 2
RECTANGLE Normal 224 480 -48 320 2
