Version 4.1
SHEET 1 1332 744
WIRE 704 -336 704 -512
WIRE 704 -240 704 -256
WIRE 1200 -240 704 -240
WIRE 704 -224 704 -240
WIRE 704 -208 704 -224
WIRE 640 -144 528 -144
WIRE 640 -96 640 -144
WIRE 704 -96 704 -128
WIRE 704 -96 640 -96
WIRE 896 -96 704 -96
WIRE 1072 -96 896 -96
WIRE 1200 -96 1200 -160
WIRE 704 -64 704 -96
WIRE 896 -64 896 -96
WIRE 1072 -64 1072 -96
WIRE 1200 -64 1200 -96
WIRE 272 16 64 16
WIRE 384 16 352 16
WIRE 400 16 384 16
WIRE 496 16 480 16
WIRE 528 16 528 -64
WIRE 528 16 496 16
WIRE 608 16 528 16
WIRE 656 16 608 16
WIRE 896 32 896 0
WIRE 928 32 896 32
WIRE 1072 32 1072 0
WIRE 1072 32 1008 32
WIRE 704 64 704 32
WIRE 896 64 896 32
WIRE 896 64 704 64
WIRE 1200 64 1200 0
WIRE 1200 64 896 64
WIRE 608 96 608 16
WIRE 624 96 608 96
WIRE 704 96 704 64
WIRE 704 96 688 96
WIRE 704 176 704 96
WIRE 704 208 704 176
WIRE 704 320 704 288
WIRE 704 336 704 320
WIRE 704 624 704 416
FLAG 704 -512 drain
FLAG 704 624 source
FLAG 64 16 gate
FLAG 704 -224 d1
FLAG 704 -96 d2
FLAG 704 320 s1
FLAG 704 176 s2
FLAG 384 16 g1
FLAG 496 16 g2
FLAG 1072 32 s3
FLAG 1200 -96 21
SYMBOL ind 688 -352 R0
SYMATTR InstName Ld1
SYMATTR Value 4n
SYMBOL res 688 -224 R0
SYMATTR InstName Rd1
SYMATTR Value 2.55m
SYMBOL ind 256 32 R270
WINDOW 0 32 56 VTop 2
WINDOW 3 5 56 VBottom 2
SYMATTR InstName Lg1
SYMATTR Value 5n
SYMBOL res 384 32 R270
WINDOW 0 32 56 VTop 2
WINDOW 3 0 56 VBottom 2
SYMATTR InstName Rg1
SYMATTR Value 1.1
SYMBOL ind 720 432 R180
WINDOW 0 36 80 Left 2
WINDOW 3 36 40 Left 2
SYMATTR InstName Ls1
SYMATTR Value 6n
SYMBOL res 720 304 R180
WINDOW 0 36 76 Left 2
WINDOW 3 36 40 Left 2
SYMATTR InstName Rs1
SYMATTR Value 539µ
SYMBOL nmos 656 -64 R0
SYMATTR InstName M1
SYMATTR Value DMOS
SYMBOL diode 912 0 R180
WINDOW 0 24 64 Left 2
WINDOW 3 24 0 Left 2
SYMATTR InstName Dbd1
SYMATTR Value Dbt
SYMBOL diode 1088 0 R180
WINDOW 0 24 64 Left 2
WINDOW 3 24 0 Left 2
SYMATTR InstName Dbd2
SYMATTR Value Dbt1
SYMBOL diode 1216 0 R180
WINDOW 0 24 64 Left 2
WINDOW 3 24 0 Left 2
SYMATTR InstName Dbody1
SYMATTR Value DBODY
SYMBOL res 1024 16 R90
WINDOW 0 0 56 VBottom 2
WINDOW 3 -52 57 VTop 2
SYMATTR InstName Rsp1
SYMATTR Value 1µ
SYMBOL res 1184 -256 R0
SYMATTR InstName Rdiode1
SYMATTR Value 0.45m
SYMBOL res 512 -160 R0
SYMATTR InstName Rpar1
SYMATTR Value 10Meg
SYMBOL cap 688 80 R90
WINDOW 0 0 32 VBottom 2
WINDOW 3 32 32 VTop 2
SYMATTR InstName Cgs1
SYMATTR Value 6n
TEXT -992 328 Left 2 !.MODEL DMOS NMOS ( KP=330.5  VTO=5  THETA=0  VMAX=1.5e5  ETA=0.005  LEVEL=3)\n.MODEL     Dbt    D(BV=161  M=0.65  CJO=2.46n  VJ=2.5V)\n.MODEL     Dbt1    D(BV=1000   M=0.65  CJO=9.61n  VJ=2.5V)\n.MODEL DBODY  D(IS=10.6p  N=1.05  RS=0.02u  EG=1.12  TT=30n)\n.MODEL   sw    NMOS(VTO=0  KP=10   LEVEL=1)\n.MODEL     DGD    D(M=0.42  CJO=0.87n  VJ=0.5)
