Version 4.1
SHEET 1 2816 680
WIRE 1984 80 1696 80
WIRE 1264 96 976 96
WIRE 1984 160 1984 80
WIRE 1264 176 1264 96
WIRE 1984 304 1984 240
WIRE 1264 320 1264 256
WIRE 1808 384 1696 384
WIRE 1936 384 1888 384
WIRE 1088 400 976 400
WIRE 1216 400 1168 400
WIRE 1696 400 1696 384
WIRE 976 416 976 400
WIRE 1984 448 1984 400
WIRE 1264 464 1264 416
FLAG 976 496 0
FLAG 1264 464 0
FLAG 976 176 0
FLAG 1696 480 0
FLAG 1984 448 0
FLAG 1696 160 0
SYMBOL voltage 976 80 R0
WINDOW 123 0 0 Left 0
WINDOW 39 24 124 Left 2
SYMATTR SpiceLine Rser=100m
SYMATTR InstName V3
SYMATTR Value 48
SYMBOL voltage 976 400 R0
WINDOW 123 0 0 Left 0
WINDOW 39 0 0 Left 0
SYMATTR InstName V4
SYMATTR Value PULSE(0 10 0 200N 200N 1u 7u)
SYMBOL res 1184 384 R90
WINDOW 0 0 56 VBottom 2
WINDOW 3 32 56 VTop 2
SYMATTR InstName R2
SYMATTR Value 3
SYMBOL nmos 1216 320 R0
SYMATTR InstName M4
SYMATTR Value IRF150P221_L0
SYMATTR Prefix X
SYMBOL res 1248 160 R0
SYMATTR InstName R3
SYMATTR Value 10
SYMBOL voltage 1696 64 R0
WINDOW 123 0 0 Left 0
WINDOW 39 24 124 Left 2
SYMATTR SpiceLine Rser=100m
SYMATTR InstName V1
SYMATTR Value 48
SYMBOL voltage 1696 384 R0
WINDOW 123 0 0 Left 0
WINDOW 39 0 0 Left 0
SYMATTR InstName V2
SYMATTR Value PULSE(0 10 0 200N 200N 1u 7u)
SYMBOL res 1904 368 R90
WINDOW 0 0 56 VBottom 2
WINDOW 3 32 56 VTop 2
SYMATTR InstName R1
SYMATTR Value 3
SYMBOL nmos 1936 304 R0
SYMATTR InstName M1
SYMATTR Value IRF150P221_L0_local
SYMATTR Prefix M
SYMBOL res 1968 144 R0
SYMATTR InstName R4
SYMATTR Value 10
TEXT 872 544 Left 2 !.tran 20u
TEXT 1024 64 Left 2 !.include IRF150P221.lib
TEXT 2072 112 Left 2 !.model IRF150P221_L0_local NMOS (\n  +LEVEL=1\n  +VTO=5\n  +KP=330.5\n  +LAMBDA=0.01\n  +CGSO=6n\n  +CGDO=0.87n)
