Version 4.1
SHEET 1 880 680
WIRE 208 32 80 32
WIRE 80 64 80 32
WIRE 208 256 80 256
WIRE 384 256 336 256
WIRE 608 256 464 256
WIRE 80 288 80 256
WIRE 336 288 336 256
FLAG 80 144 0
FLAG 80 368 0
FLAG 208 32 CH2
FLAG 208 256 CH3
FLAG 608 256 ch2_sim
FLAG 464 336 0
FLAG 336 368 0
SYMBOL voltage 80 48 R0
WINDOW 123 0 0 Left 0
WINDOW 39 0 0 Left 0
SYMATTR InstName V1
SYMATTR Value PWL file=CH2.txt
SYMBOL voltage 80 272 R0
WINDOW 123 0 0 Left 0
WINDOW 39 0 0 Left 0
SYMATTR InstName V2
SYMATTR Value PWL file=CH3.txt
SYMBOL ind 480 240 R90
WINDOW 0 5 56 VBottom 2
WINDOW 3 32 56 VTop 2
SYMATTR InstName L1
SYMATTR Value 20µ
SYMBOL res 448 240 R0
SYMATTR InstName R1
SYMATTR Value 50
SYMBOL bv 336 272 R0
SYMATTR InstName B1
SYMATTR Value V=v(CH3)-0.00281
TEXT 40 168 Left 2 !.tran 1.999800e-06
