Version 4.1
SHEET 1 1996 1108
WIRE 1280 96 976 96
WIRE 1520 96 1280 96
WIRE 1280 160 1280 96
WIRE 1520 160 1520 96
WIRE 1232 208 1184 208
WIRE 1184 224 1184 208
WIRE 1280 224 1184 224
WIRE 1280 272 1280 224
WIRE 1520 272 1520 240
WIRE 1520 272 1280 272
WIRE 1280 480 1280 272
WIRE 1104 560 992 560
WIRE 1232 560 1184 560
WIRE 992 576 992 560
WIRE 1280 624 1280 576
WIRE 1088 912 848 912
WIRE 848 944 848 912
WIRE 848 976 848 944
WIRE 1088 976 1088 912
WIRE 800 1024 752 1024
WIRE 752 1040 752 1024
WIRE 848 1040 752 1040
WIRE 848 1088 848 1040
WIRE 928 1088 848 1088
WIRE 1088 1088 1088 1056
WIRE 1088 1088 928 1088
FLAG 992 656 0
FLAG 1280 624 0
FLAG 976 176 0
FLAG 1536 816 0
FLAG 928 1088 0
DATAFLAG 1088 560 ""
SYMBOL voltage 976 80 R0
WINDOW 123 0 0 Left 0
WINDOW 39 24 124 Left 2
SYMATTR SpiceLine Rser=100m
SYMATTR InstName V3
SYMATTR Value 48
SYMBOL voltage 992 560 R0
WINDOW 123 0 0 Left 0
WINDOW 39 0 0 Left 0
SYMATTR InstName V4
SYMATTR Value PULSE(0 10 1u 80N 80N 1u 7u)
SYMBOL res 1200 544 R90
WINDOW 0 0 56 VBottom 2
WINDOW 3 32 56 VTop 2
SYMATTR InstName R2
SYMATTR Value 3
SYMBOL nmos 1232 480 R0
SYMATTR InstName M4
SYMATTR Value IRF150P221_L0
SYMATTR Prefix X
SYMBOL ind 1504 144 R0
WINDOW 39 36 108 Left 2
SYMATTR SpiceLine Rser=1m Rpar=1Meg
SYMATTR InstName L1
SYMATTR Value 10µ
SYMBOL diode 1296 224 R180
WINDOW 0 24 64 Left 2
WINDOW 3 24 0 Left 2
SYMATTR InstName D1
SYMATTR Value RB578VAM100
SYMBOL ind 1072 960 R0
WINDOW 39 36 108 Left 2
SYMATTR SpiceLine Rser=1m Rpar=1Meg
SYMATTR InstName L2
SYMATTR Value 10µ
SYMBOL nmos 800 944 R0
SYMATTR InstName M2
SYMATTR Value IRF150P221_L1
SYMATTR Prefix X
TEXT 656 352 Left 2 !.tran 10u
TEXT 664 296 Left 2 !.include IRF150P221.lib
TEXT 1600 72 Left 2 !.ic i(L1)=0
TEXT 1168 888 Left 2 !.ic i(L2)=500m
