Version 4.1
SHEET 1 3620 984
WIRE 1184 64 1056 64
WIRE 1056 80 1056 64
WIRE 1056 80 928 80
WIRE 1056 96 1056 80
WIRE 1056 96 976 96
WIRE 1264 96 1136 96
WIRE 928 112 928 80
WIRE 928 112 896 112
WIRE 1264 112 1264 96
WIRE 1376 112 1264 112
WIRE 1264 160 1264 112
WIRE 1264 160 1200 160
WIRE 1376 160 1376 112
WIRE 1264 176 1264 160
WIRE 1072 256 832 256
WIRE 832 272 832 256
WIRE 1152 272 1152 240
WIRE 1200 272 1200 256
WIRE 1200 272 1152 272
WIRE 1264 272 1264 256
WIRE 1264 272 1200 272
WIRE 1264 304 1264 272
WIRE 1376 304 1376 240
WIRE 1376 304 1264 304
WIRE 1264 320 1264 304
WIRE 1072 400 1072 256
WIRE 1088 400 1072 400
WIRE 1216 400 1168 400
WIRE 832 416 832 352
WIRE 976 416 976 400
WIRE 1264 464 1264 416
FLAG 976 496 0
FLAG 1264 464 0
FLAG 976 176 0
FLAG 1440 304 0
FLAG 832 416 0
FLAG 896 176 0
SYMBOL voltage 976 80 R0
WINDOW 123 0 0 Left 0
WINDOW 39 24 124 Left 2
SYMATTR SpiceLine Rser=100m
SYMATTR InstName V3
SYMATTR Value 48
SYMBOL voltage 976 400 R0
WINDOW 123 0 0 Left 0
WINDOW 39 0 0 Left 0
SYMATTR InstName V4
SYMATTR Value PULSE(0 10 0 200N 200N 1u 7u)
SYMBOL res 1184 384 R90
WINDOW 0 0 56 VBottom 2
WINDOW 3 32 56 VTop 2
SYMATTR InstName R2
SYMATTR Value 3
SYMBOL nmos 1216 320 R0
SYMATTR InstName M4
SYMATTR Value IRF150P221_L0
SYMATTR Prefix X
SYMBOL ind 1360 144 R0
SYMATTR InstName L1
SYMATTR Value 10µ
SYMBOL nmos 1152 160 R0
SYMATTR InstName M2
SYMATTR Value IRF150P221_L0
SYMATTR Prefix X
SYMBOL cap 1440 288 R90
WINDOW 0 0 32 VBottom 2
WINDOW 3 32 32 VTop 2
SYMATTR InstName C1
SYMATTR Value 10p
SYMBOL ind 1040 80 M90
WINDOW 0 5 56 VBottom 2
WINDOW 3 32 56 VTop 2
SYMATTR InstName L3
SYMATTR Value 10n
SYMBOL voltage 832 256 R0
WINDOW 123 0 0 Left 0
WINDOW 39 0 0 Left 0
SYMATTR InstName V1
SYMATTR Value PWL(0 0 1u 0 1.01u 10 6u 10 6.01u 0 7u 0 7.01u 10 8u 10 8.01u 0 9u 0)
SYMBOL cap 880 112 R0
SYMATTR InstName C2
SYMATTR Value 100µ
SYMATTR SpiceLine Rser=1m Lser=1n
TEXT 872 544 Left 2 !.tran 9u
TEXT 1368 80 Left 2 ;.include IRF150P221.lib
TEXT 1696 8 Left 2 !.SUBCKT IRF150P221_L0 drain gate source\n \nLg     gate   g1   5n\nLd     drain  d1   4n\nLs     source s1   6n\nRs     s1     s2   539u  TC=3m\n \nRg     g1     g2   1.1\n \nM1     d2     g2    s2    s2    DMOS    L=1u   W=1u\n.MODEL DMOS NMOS ( KP=330.5  VTO=5  THETA=0  VMAX=1.5e5  ETA=0.005  LEVEL=3)\nRd     d1    d2    2.55m  TC=9m\n \nDbd     s2    d2    Dbt\n.MODEL     Dbt    D(BV=161  M=0.65  CJO=2.46n  VJ=2.5V)\nRsp     s2    s3     1u\nDbd1    s3    d2     Dbt1\n.MODEL     Dbt1    D(BV=1000   M=0.65  CJO=9.61n  VJ=2.5V)\nDbody   s2   21    DBODY\n.MODEL DBODY  D(IS=10.6p  N=1.05  RS=0.02u  EG=1.12  TT=30n)\nRdiode  d1  21    0.45m  TC=1m\n \n.MODEL   sw    NMOS(VTO=0  KP=10   LEVEL=1)\nMaux      g2   c    a    a   sw\nMaux2     b    d    g2    g2   sw\nEaux      c    a    d2    g2   1\nEaux2     d    g2   d2    g2   -1\nCox       b    d2   0.87n\n.MODEL     DGD    D(M=0.42  CJO=0.87n  VJ=0.5)\nRpar      b    d2   1Meg\nDgd       a    d2   DGD\nRpar2     d2   a    10Meg\nCgs     g2    s2    6n\n \n.ENDS IRF150P221_L0
