Version 4.1
SHEET 1 7588 1476
WIRE 832 -176 768 -176
WIRE 864 -176 832 -176
WIRE 1056 -176 944 -176
WIRE 1472 -176 1056 -176
WIRE 1056 -112 1056 -176
WIRE 1472 -112 1472 -176
WIRE 1056 -96 1056 -112
WIRE 1056 -16 1056 -32
WIRE 1008 0 1008 -32
WIRE 1056 0 1056 -16
WIRE 1056 0 1008 0
WIRE 1072 0 1056 0
WIRE 1424 16 1072 16
WIRE 1472 16 1472 -32
WIRE 1472 16 1424 16
WIRE 1056 32 1056 0
WIRE 1072 32 1072 16
WIRE 1072 32 1056 32
WIRE 1056 48 1056 32
WIRE 880 128 768 128
WIRE 976 128 960 128
WIRE 1008 128 976 128
WIRE 768 144 768 128
WIRE 928 176 896 176
WIRE 1056 176 1056 144
WIRE 1056 176 928 176
WIRE 1120 176 1056 176
WIRE 1264 176 1200 176
WIRE 928 208 928 176
WIRE 976 208 928 208
WIRE 768 224 752 224
WIRE 848 224 768 224
WIRE 896 224 848 224
FLAG 768 -96 0
FLAG 1264 176 0
FLAG 1424 80 0
FLAG 832 -240 0
FLAG 848 224 0
SYMBOL voltage 768 -192 R0
WINDOW 123 0 0 Left 0
WINDOW 39 24 124 Left 2
SYMATTR SpiceLine Rser=10m
SYMATTR InstName V1
SYMATTR Value 48
SYMBOL voltage 768 128 R0
WINDOW 123 0 0 Left 0
WINDOW 39 0 0 Left 0
WINDOW 3 -105 138 Left 2
SYMATTR Value PWL(0 0 1u 0 1.001u 10 7u 10 7.001u 0 8u 0 8.001u 10 9u 10 9.001u 0 10u 0)
SYMATTR InstName V2
SYMBOL res 976 112 R90
WINDOW 0 0 56 VBottom 2
WINDOW 3 32 56 VTop 2
SYMATTR InstName R1
SYMATTR Value 20
SYMBOL nmos 1008 48 R0
SYMATTR InstName M2
SYMATTR Value IRF150P221_L0
SYMATTR Prefix X
SYMBOL nmos 1008 -112 R0
SYMATTR InstName M3
SYMATTR Value IRF150P221_L0
SYMATTR Prefix X
SYMBOL ind 1456 -128 R0
SYMATTR InstName L1
SYMATTR Value 20µ
SYMBOL ind 960 -192 R90
WINDOW 0 5 56 VBottom 2
WINDOW 3 32 56 VTop 2
SYMATTR InstName L2
SYMATTR Value 10n
SYMBOL ind 1104 192 R270
WINDOW 0 32 56 VTop 2
WINDOW 3 5 56 VBottom 2
SYMATTR InstName L3
SYMATTR Value 10n
SYMBOL cap 1408 16 R0
SYMATTR InstName C1
SYMATTR Value 1p
SYMBOL cap 816 -240 R0
SYMATTR InstName C2
SYMATTR Value 100µ
SYMBOL res 960 112 R0
SYMATTR InstName R2
SYMATTR Value 10k
TEXT 792 344 Left 2 !.SUBCKT IRF150P221_L0 drain gate source\n \nLg     gate   g1   5n\nLd     drain  d1   4n\nLs     source s1   6n\nRs     s1     s2   539u  TC=3m\n \nRg     g1     g2   1.1\n \nM1     d2     g2    s2    s2    DMOS    L=1u   W=1u\n.MODEL DMOS NMOS ( KP=330.5  VTO=5  THETA=0  VMAX=1.5e5  ETA=0.005  LEVEL=3)\nRd     d1    d2    2.55m  TC=9m\n \nDbd     s2    d2    Dbt\n.MODEL     Dbt    D(BV=161  M=0.65  CJO=2.46n  VJ=2.5V)\nRsp     s2    s3     1u\nDbd1    s3    d2     Dbt1\n.MODEL     Dbt1    D(BV=1000   M=0.65  CJO=9.61n  VJ=2.5V)\nDbody   s2   21    DBODY\n.MODEL DBODY  D(IS=10.6p  N=1.05  RS=0.02u  EG=1.12  TT=30n)\nRdiode  d1  21    0.45m  TC=1m\n \n.MODEL   sw    NMOS(VTO=0  KP=10   LEVEL=1)\nMaux      g2   c    a    a   sw\nMaux2     b    d    g2    g2   sw\nEaux      c    a    d2    g2   1\nEaux2     d    g2   d2    g2   -1\nCox       b    d2   0.87n\n.MODEL     DGD    D(M=0.42  CJO=0.87n  VJ=0.5)\nRpar      b    d2   1Meg\nDgd       a    d2   DGD\nRpar2     d2   a    10Meg\nCgs     g2    s2    6n\n \n.ENDS IRF150P221_L0
TEXT 656 1320 Left 2 !.tran 10u
TEXT 944 -248 Left 2 !*.include StrongIRFET_LTSpice.lib
