Version 4.1
SHEET 1 4628 1476
WIRE 1056 -176 768 -176
WIRE 2672 -144 2384 -144
WIRE 1056 -96 1056 -176
WIRE 2672 -64 2672 -144
WIRE 3584 -48 3424 -48
WIRE 3680 -48 3584 -48
WIRE 3792 -48 3680 -48
WIRE 3680 32 3680 16
WIRE 3680 32 3584 32
WIRE 3856 32 3856 -144
WIRE 1056 48 1056 -16
WIRE 3680 48 3680 32
WIRE 2672 80 2672 16
WIRE 3680 80 3680 48
WIRE 880 128 768 128
WIRE 1008 128 960 128
WIRE 3856 128 3856 112
WIRE 4352 128 3856 128
WIRE 768 144 768 128
WIRE 3856 144 3856 128
WIRE 2432 160 2320 160
WIRE 2560 160 2512 160
WIRE 3584 160 3472 160
WIRE 3632 160 3584 160
WIRE 3856 160 3856 144
WIRE 2320 176 2320 160
WIRE 3424 176 3424 -48
WIRE 3424 176 3328 176
WIRE 1056 192 1056 144
WIRE 3424 272 3424 224
WIRE 3472 272 3472 240
WIRE 3472 272 3424 272
WIRE 3680 272 3680 176
WIRE 3680 272 3472 272
WIRE 3792 272 3792 -48
WIRE 3856 272 3856 240
WIRE 3856 272 3792 272
WIRE 4048 272 3856 272
WIRE 4224 272 4048 272
WIRE 4352 272 4352 208
WIRE 3856 304 3856 272
WIRE 4048 304 4048 272
WIRE 4224 304 4224 272
WIRE 4352 304 4352 272
WIRE 2672 320 2672 272
WIRE 3424 384 3216 384
WIRE 3536 384 3504 384
WIRE 3552 384 3536 384
WIRE 3648 384 3632 384
WIRE 3680 384 3680 272
WIRE 3680 384 3648 384
WIRE 3760 384 3680 384
WIRE 3808 384 3760 384
WIRE 4048 400 4048 368
WIRE 4080 400 4048 400
WIRE 4224 400 4224 368
WIRE 4224 400 4160 400
WIRE 3856 432 3856 400
WIRE 4048 432 4048 400
WIRE 4048 432 3856 432
WIRE 4352 432 4352 368
WIRE 4352 432 4048 432
WIRE 3680 464 3680 384
WIRE 3760 464 3760 384
WIRE 3776 464 3760 464
WIRE 3856 464 3856 432
WIRE 3856 464 3840 464
WIRE 3584 544 3456 544
WIRE 3632 544 3584 544
WIRE 3856 544 3856 464
WIRE 3456 576 3456 544
WIRE 3856 576 3856 544
WIRE 3328 592 3328 176
WIRE 3408 592 3328 592
WIRE 3680 608 3680 560
WIRE 3456 672 3456 656
WIRE 3520 672 3456 672
WIRE 3680 672 3680 608
WIRE 3680 672 3520 672
WIRE 3520 688 3520 672
WIRE 3680 688 3680 672
WIRE 3856 688 3856 656
WIRE 3856 704 3856 688
WIRE 3328 784 3328 592
WIRE 3520 784 3520 768
WIRE 3520 784 3328 784
WIRE 3680 784 3680 752
WIRE 3680 784 3520 784
WIRE 3408 864 3408 640
WIRE 3760 864 3760 464
WIRE 3760 864 3408 864
WIRE 3856 992 3856 784
FLAG 3856 -144 drain
FLAG 3856 992 source
FLAG 3216 384 gate
FLAG 3856 144 d1
FLAG 3856 272 d2
FLAG 3856 688 s1
FLAG 3856 544 s2
FLAG 3536 384 g1
FLAG 3648 384 g2
FLAG 4224 400 s3
FLAG 4352 272 21
FLAG 3584 544 c
FLAG 3680 608 a
FLAG 3584 160 d
FLAG 3680 48 b
FLAG 2320 256 0
FLAG 2672 320 0
FLAG 2384 -64 0
FLAG 2672 80 drain
FLAG 2560 160 gate
FLAG 2672 272 source
FLAG 768 224 0
FLAG 1056 192 0
FLAG 768 -96 0
SYMBOL ind 3840 16 R0
SYMATTR InstName Ld
SYMATTR Value 4n
SYMBOL res 3840 144 R0
SYMATTR InstName Rd
SYMATTR Value 2.55m
SYMBOL ind 3408 400 R270
WINDOW 0 32 56 VTop 2
WINDOW 3 5 56 VBottom 2
SYMATTR InstName Lg
SYMATTR Value 5n
SYMBOL res 3536 400 R270
WINDOW 0 32 56 VTop 2
WINDOW 3 0 56 VBottom 2
SYMATTR InstName Rg
SYMATTR Value 1.1
SYMBOL ind 3872 800 R180
WINDOW 0 36 80 Left 2
WINDOW 3 36 40 Left 2
SYMATTR InstName Ls
SYMATTR Value 6n
SYMBOL res 3872 672 R180
WINDOW 0 36 76 Left 2
WINDOW 3 36 40 Left 2
SYMATTR InstName Rs
SYMATTR Value 539µ
SYMBOL nmos 3808 304 R0
SYMATTR InstName M1
SYMATTR Value DMOS
SYMBOL diode 4064 368 R180
WINDOW 0 24 64 Left 2
WINDOW 3 24 0 Left 2
SYMATTR InstName Dbd
SYMATTR Value Dbt
SYMBOL diode 4240 368 R180
WINDOW 0 24 64 Left 2
WINDOW 3 24 0 Left 2
SYMATTR InstName Dbd1
SYMATTR Value Dbt1
SYMBOL diode 4368 368 R180
WINDOW 0 24 64 Left 2
WINDOW 3 24 0 Left 2
SYMATTR InstName Dbody
SYMATTR Value DBODY
SYMBOL res 4176 384 R90
WINDOW 0 0 56 VBottom 2
WINDOW 3 -52 57 VTop 2
SYMATTR InstName Rsp
SYMATTR Value 1µ
SYMBOL res 4336 112 R0
SYMATTR InstName Rdiode
SYMATTR Value 0.45m
SYMBOL nmos 3632 464 R0
SYMATTR InstName Maux
SYMATTR Value SW
SYMBOL nmos 3632 80 R0
SYMATTR InstName Maux2
SYMATTR Value SW
SYMBOL e 3456 560 R0
SYMATTR InstName Eaux
SYMATTR Value 1
SYMBOL e 3472 144 R0
WINDOW 0 41 59 Left 2
SYMATTR InstName Eaux2
SYMATTR Value -1
SYMBOL cap 3664 -48 R0
SYMATTR InstName Cox
SYMATTR Value 0.87n
SYMBOL res 3568 -64 R0
WINDOW 0 -60 30 Left 2
WINDOW 3 -67 69 Left 2
SYMATTR InstName Rpar
SYMATTR Value 1Meg
SYMBOL diode 3664 688 R0
SYMATTR InstName Dgd
SYMATTR Value DGD
SYMBOL res 3504 672 R0
SYMATTR InstName Rpar2
SYMATTR Value 10Meg
SYMBOL cap 3840 448 R90
WINDOW 0 0 32 VBottom 2
WINDOW 3 32 32 VTop 2
SYMATTR InstName Cgs
SYMATTR Value 6n
SYMBOL voltage 2384 -160 R0
WINDOW 123 0 0 Left 0
WINDOW 39 24 124 Left 2
SYMATTR SpiceLine Rser=100m
SYMATTR InstName V3
SYMATTR Value 48
SYMBOL voltage 2320 160 R0
WINDOW 123 0 0 Left 0
WINDOW 39 0 0 Left 0
WINDOW 3 -140 146 Left 2
SYMATTR InstName V4
SYMATTR Value PULSE(0 10 0 200N 200N 1u 7u)
SYMBOL res 2528 144 R90
WINDOW 0 0 56 VBottom 2
WINDOW 3 32 56 VTop 2
SYMATTR InstName R3
SYMATTR Value 3
SYMBOL res 2656 -80 R0
SYMATTR InstName R4
SYMATTR Value 10
SYMBOL voltage 768 -192 R0
WINDOW 123 0 0 Left 0
WINDOW 39 24 124 Left 2
SYMATTR SpiceLine Rser=100m
SYMATTR InstName V1
SYMATTR Value 48
SYMBOL voltage 768 128 R0
WINDOW 123 0 0 Left 0
WINDOW 39 0 0 Left 0
WINDOW 3 -105 138 Left 2
SYMATTR InstName V2
SYMATTR Value PULSE(0 10 0 200N 200N 1u 7u)
SYMBOL res 976 112 R90
WINDOW 0 0 56 VBottom 2
WINDOW 3 32 56 VTop 2
SYMATTR InstName R1
SYMATTR Value 3
SYMBOL nmos 1008 48 R0
SYMATTR InstName M2
SYMATTR Value IRF150P221_L0
SYMATTR Prefix X
SYMBOL res 1040 -112 R0
SYMATTR InstName R2
SYMATTR Value 10
TEXT 2168 576 Left 2 ;E<name> <+OUT> <-OUT> <+IN> <-IN> <gain>\nM<name> <D> <G> <S> <B> <model> [optional params]\nD<name> <anode> <cathode> <model>
TEXT 2456 448 Left 2 !.tran 20u
TEXT 2160 696 Left 2 !.MODEL DMOS NMOS ( KP=330.5  VTO=5  THETA=0  VMAX=1.5e5  ETA=0.005  LEVEL=3)\n.MODEL     Dbt    D(BV=161  M=0.65  CJO=2.46n  VJ=2.5V)\n.MODEL     Dbt1    D(BV=1000   M=0.65  CJO=9.61n  VJ=2.5V)\n.MODEL DBODY  D(IS=10.6p  N=1.05  RS=0.02u  EG=1.12  TT=30n)\n.MODEL   sw    NMOS(VTO=0  KP=10   LEVEL=1)\n.MODEL     DGD    D(M=0.42  CJO=0.87n  VJ=0.5)
TEXT 792 344 Left 2 !.SUBCKT IRF150P221_L0 drain gate source\n \nLg     gate   g1   5n\nLd     drain  d1   4n\nLs     source s1   6n\nRs     s1     s2   539u  TC=3m\n \nRg     g1     g2   1.1\n \nM1     d2     g2    s2    s2    DMOS    L=1u   W=1u\n.MODEL DMOS NMOS ( KP=330.5  VTO=5  THETA=0  VMAX=1.5e5  ETA=0.005  LEVEL=3)\nRd     d1    d2    2.55m  TC=9m\n \nDbd     s2    d2    Dbt\n.MODEL     Dbt    D(BV=161  M=0.65  CJO=2.46n  VJ=2.5V)\nRsp     s2    s3     1u\nDbd1    s3    d2     Dbt1\n.MODEL     Dbt1    D(BV=1000   M=0.65  CJO=9.61n  VJ=2.5V)\nDbody   s2   21    DBODY\n.MODEL DBODY  D(IS=10.6p  N=1.05  RS=0.02u  EG=1.12  TT=30n)\nRdiode  d1  21    0.45m  TC=1m\n \n.MODEL   sw    NMOS(VTO=0  KP=10   LEVEL=1)\nMaux      g2   c    a    a   sw\nMaux2     b    d    g2    g2   sw\nEaux      c    a    d2    g2   1\nEaux2     d    g2   d2    g2   -1\nCox       b    d2   0.87n\n.MODEL     DGD    D(M=0.42  CJO=0.87n  VJ=0.5)\nRpar      b    d2   1Meg\nDgd       a    d2   DGD\nRpar2     d2   a    10Meg\nCgs     g2    s2    6n\n \n.ENDS IRF150P221_L0
RECTANGLE Normal 4480 960 3248 -96 2
RECTANGLE Normal 2544 288 2704 48 2
RECTANGLE Normal 1984 1408 464 -432 2
RECTANGLE Normal 4624 1408 2064 -432 2
