Version 4.1
SHEET 1 1488 680
WIRE 496 -64 368 -64
WIRE 640 -64 496 -64
WIRE 832 -64 640 -64
WIRE 496 -16 496 -64
WIRE 368 48 368 -64
WIRE 496 80 496 48
WIRE 640 80 496 80
WIRE 752 80 640 80
WIRE 832 80 832 -64
WIRE 496 112 496 80
WIRE 496 128 496 112
WIRE 368 160 368 128
WIRE 368 304 368 240
FLAG 368 304 0
FLAG 496 192 0
FLAG 496 112 vd2
FLAG 640 224 0
SYMBOL cap 480 128 R0
SYMATTR InstName C2
SYMATTR Value 43p
SYMBOL ind 352 32 R0
SYMATTR InstName L_loop
SYMATTR Value 52n
SYMBOL voltage 368 144 R0
WINDOW 123 0 0 Left 0
WINDOW 39 0 0 Left 0
SYMATTR InstName V2
SYMATTR Value 400
SYMBOL diode 512 48 R180
WINDOW 0 24 64 Left 2
WINDOW 3 24 0 Left 2
SYMATTR InstName D2
SYMBOL current 832 80 R90
WINDOW 0 -32 40 VBottom 2
WINDOW 3 32 40 VTop 2
WINDOW 123 0 0 Left 0
WINDOW 39 0 0 Left 0
SYMATTR InstName I2
SYMATTR Value 15
SYMBOL res 624 64 R0
SYMATTR InstName R1
SYMATTR Value {Rsn}
SYMBOL cap 624 160 R0
SYMATTR InstName C3
SYMATTR Value {Csn}
SYMBOL res 624 -80 R0
SYMATTR InstName R2
SYMATTR Value {Rsn}
SYMBOL cap 624 16 R0
SYMATTR InstName C1
SYMATTR Value {Csn}
TEXT 1160 16 Left 2 !.tran 1u
TEXT 808 200 Left 2 !.ic v(vd)=0 v(vd2)=0 v(vd3)=0 v(vd4)=0
TEXT 896 104 Left 2 !.param Rsn = 20 Csn = 220p
