Version 4.1
SHEET 1 1488 680
WIRE 480 -144 96 -144
WIRE 832 -144 480 -144
WIRE 832 -80 832 -144
WIRE 96 -64 96 -144
WIRE 480 -48 480 -144
WIRE 480 -48 448 -48
WIRE 512 -48 480 -48
WIRE 480 16 448 16
WIRE 512 16 480 16
WIRE 96 48 96 16
WIRE 480 80 480 16
WIRE 688 80 480 80
WIRE 832 80 832 0
WIRE 832 80 688 80
WIRE 96 160 96 128
WIRE 480 176 480 80
WIRE 480 176 448 176
WIRE 512 176 480 176
WIRE 480 240 448 240
WIRE 512 240 480 240
WIRE 480 288 480 240
WIRE 96 304 96 240
FLAG 96 304 0
FLAG 688 80 vd
FLAG 480 288 0
SYMBOL ind 80 32 R0
SYMATTR InstName L_loop
SYMATTR Value 52n
SYMBOL voltage 96 144 R0
WINDOW 123 0 0 Left 0
WINDOW 39 24 124 Left 2
SYMATTR InstName V2
SYMATTR Value 400
SYMBOL res 80 -80 R0
SYMATTR InstName R1
SYMATTR Value {R_ser_all}
SYMBOL diode 464 240 R180
WINDOW 0 24 64 Left 2
WINDOW 3 24 0 Left 2
SYMATTR InstName D3
SYMBOL cap 496 176 R0
SYMATTR InstName C3
SYMATTR Value {Cos}
SYMBOL diode 464 16 R180
WINDOW 0 24 64 Left 2
WINDOW 3 24 0 Left 2
SYMATTR InstName D1
SYMBOL cap 496 -48 R0
SYMATTR InstName C1
SYMATTR Value {Cos}
SYMBOL ind 816 -96 R0
SYMATTR InstName L1
SYMATTR Value 360µ
TEXT 880 512 Left 2 !.tran 1u
TEXT 808 200 Left 2 !.ic v(vd)=0 i(L1)=10
TEXT 896 104 Left 2 !.param Rsn=20 Csn=220p Cos=130p R_ser_all=1
TEXT 536 144 Left 2 ;Mosfet
TEXT 536 -80 Left 2 ;Mosfet
TEXT 152 -112 Left 2 ;DCLINK-capa
RECTANGLE Normal 608 272 384 160 2
RECTANGLE Normal 608 48 384 -64 2
RECTANGLE Normal 288 272 -16 -96 2
